6
# CELL(abcABC):  200.00000   200.00000   200.00000    90.00000    90.00000    90.00000  Step:          23  Bead:       0 x_centroid{angstrom}  cell{atomic_unit}
       H  1.63122e+00  1.36249e+00  1.15166e+00
       C  8.45044e-01  7.89710e-01  6.62024e-01
       H  1.29342e+00  6.36854e-02 -1.42872e-02
       H  2.02315e-01  1.46356e+00  9.73942e-02
       H  2.53055e-01  2.69128e-01  1.41340e+00
       H  5.82888e+00  2.17929e+00  1.85258e+00
