3
# CELL(abcABC):  80.  80.  80.  90.  90.  90.  Step:  1991  Bead:  5 positions{angstrom}  cell{angstrom}
O  1.19958e+01  2.81118e+01  2.23994e+01
H  1.23809e+01  2.72811e+01  2.28836e+01
H  1.25314e+01  2.88572e+01  2.25993e+01
3
# CELL(abcABC):  80.  80.  80.  90.  90.  90.  Step:  1992  Bead:  5 positions{angstrom}  cell{angstrom}
O  1.19948e+01  2.81142e+01  2.23984e+01
H  1.23913e+01  2.72450e+01  2.28479e+01
H  1.25444e+01  2.88694e+01  2.26147e+01
3
# CELL(abcABC):  80.  80.  80.  90.  90.  90.  Step:  1993  Bead:  5 positions{angstrom}  cell{angstrom}
O  1.19938e+01  2.81175e+01  2.23995e+01
H  1.23982e+01  2.72194e+01  2.28071e+01
H  1.25562e+01  2.88791e+01  2.26312e+01
3
# CELL(abcABC):  80.  80.  80.  90.  90.  90.  Step:  1994  Bead:  5 positions{angstrom}  cell{angstrom}
O  1.19929e+01  2.81217e+01  2.24027e+01
H  1.24011e+01  2.72057e+01  2.27623e+01
H  1.25659e+01  2.88850e+01  2.26482e+01
3
# CELL(abcABC):  80.  80.  80.  90.  90.  90.  Step:  1995  Bead:  5 positions{angstrom}  cell{angstrom}
O  1.19921e+01  2.81266e+01  2.24080e+01
H  1.23999e+01  2.72041e+01  2.27146e+01
H  1.25729e+01  2.88863e+01  2.26652e+01
3
# CELL(abcABC):  80.  80.  80.  90.  90.  90.  Step:  1996  Bead:  5 positions{angstrom}  cell{angstrom}
O  1.19915e+01  2.81322e+01  2.24150e+01
H  1.23945e+01  2.72144e+01  2.26656e+01
H  1.25770e+01  2.88827e+01  2.26821e+01
3
# CELL(abcABC):  80.  80.  80.  90.  90.  90.  Step:  1997  Bead:  5 positions{angstrom}  cell{angstrom}
O  1.19911e+01  2.81385e+01  2.24235e+01
H  1.23855e+01  2.72351e+01  2.26169e+01
H  1.25788e+01  2.88746e+01  2.26987e+01
3
# CELL(abcABC):  80.  80.  80.  90.  90.  90.  Step:  1998  Bead:  5 positions{angstrom}  cell{angstrom}
O  1.19907e+01  2.81453e+01  2.24332e+01
H  1.23738e+01  2.72641e+01  2.25699e+01
H  1.25790e+01  2.88629e+01  2.27148e+01
3
# CELL(abcABC):  80.  80.  80.  90.  90.  90.  Step:  1999  Bead:  5 positions{angstrom}  cell{angstrom}
O  1.19902e+01  2.81526e+01  2.24437e+01
H  1.23606e+01  2.72976e+01  2.25262e+01
H  1.25786e+01  2.88487e+01  2.27306e+01
3
# CELL(abcABC):  80.  80.  80.  90.  90.  90.  Step:  2000  Bead:  5 positions{angstrom}  cell{angstrom}
O  1.19896e+01  2.81602e+01  2.24544e+01
H  1.23480e+01  2.73313e+01  2.24867e+01
H  1.25788e+01  2.88334e+01  2.27462e+01
