80
# CELL(abcABC):   6.9739421   9.14952317  12.81393346  90.0  66.14  90.0  cell{angstrom} Traj: positions{angstrom}
  C         8.3241060491        5.5073432420        9.6399747892
  H         8.1482770455        6.5770475288        9.4020483190
  H         7.6332882694        5.3279868125       10.4711467072
  H         9.1493712466        5.2921578719        9.9594974404
  C         7.9042113005        4.7005489669        8.4372551795
  O         6.7025291715        4.6124271809        8.0892352143
  N         8.9123334889        4.1020820764        7.7589547065
  H         9.8444263180        4.1855824353        8.1764074729
  C         8.8452206665        3.2657470082        6.6211919977
  C         7.7885376485        3.2758733218        5.7015883802
  H         6.9551264639        3.9564015459        5.8286358848
  C         7.8062994273        2.4085958624        4.6096924864
  H         6.9838617873        2.4380521184        3.8968444985
  C         9.9309571052        2.4036061545        6.4072389166
  H        10.7627768221        2.4064787166        7.1101524550
  C         9.9497666622        1.5404073039        5.3161643541
  H        10.7886194353        0.8623634748        5.1767648324
  C         8.8775671635        1.5284545288        4.4135947064
  O         8.8241180198        0.6670512325        3.3518236428
  H         9.7232394509        0.3082158482        3.0932794248
  C         6.4214153086       10.0810999824        7.9343393078
  H         5.3961501529        9.8658972366        7.6148280209
  H         7.2122309477        9.9017294596        7.1031680813
  H         6.5972428897       11.1508084795        8.1722474906
  C         6.8413306383        9.2743222904        9.1370631969
  O         8.0430116907        9.1862280236        9.4850921145
  N         5.8332214061        8.6758433116        9.8153721828
  H         4.9011226577        8.7593328108        9.3979303644
  C         5.9003370384        7.8395173678       10.9531409286
  C         4.8146141762        6.9773578826       11.1670912530
  H         3.9827814171        6.9802426340       10.4641931729
  C         4.7958194795        6.1141506013       12.2581587196
  H         3.9569662969        5.4361092241       12.3975653084
  C         6.9570405427        7.8496209556       11.8727212593
  H         7.7904456307        8.5301565572       11.7456727771
  C         6.9392948480        6.9823334227       12.9646099411
  H         7.7617380684        7.0117900343       13.6774513819
  C         5.8680233008        6.1022009367       13.1607229971
  O         5.9214962134        5.2407677072       14.2224693470
  H         5.0223695497        4.8819605296       14.4810372351
  C         3.8303904079        3.6401313741        2.0762472231
  H         4.4212069631        3.8195134749        1.2450794139
  H         3.9062339236        2.5704238953        2.3141548721
  H         2.7051228489        3.8553142614        1.7567308021
  C         4.2502875544        4.4469081944        3.2789753305
  O         5.4519722442        4.5350455209        3.6269796761
  N         3.2421667956        5.0453715310        3.9572844210
  H         2.3100713060        4.9618493843        3.5398468720
  C         3.3092774815        5.8817216068        5.0950356262
  C         2.2235509971        6.7438796512        5.3089775814
  H         1.3917320833        6.7410194110        4.6060627979
  C         2.2047435216        7.6070779049        6.4000536111
  H         1.3659049875        8.2851424106        6.5394398866
  C         4.3659695153        5.8716124038        6.0146276826
  H         5.1993859473        5.1910933129        5.8875672446
  C         4.3482117429        6.7388902525        7.1065218467
  H         5.1706601986        6.7094390286        7.8193576223
  C         3.2769375838        7.6190239071        7.3026303527
  O         3.3303805966        8.4804092181        8.3644140981
  H         2.4312529648        8.8392292001        8.6229736498
  C         5.7331023920       -0.9336228563        3.7818848099
  H         5.0422862502       -0.7542307661        4.6130512019
  H         6.7583692094       -0.7184224337        4.1013915844
  H         5.6572633879       -2.0033347670        3.5439944495
  C         5.3131849499       -0.1268692225        2.5791479384
  O         4.1115002587       -0.0387554632        2.2311390841
  N         6.3212943259        0.4716074560        1.9008336353
  H         7.2533950818        0.3880983608        2.3182618562
  C         6.2541717858        1.3079599723        0.7630848994
  C         7.3398946666        2.1701199722        0.5491311191
  H         8.1717215707        2.1672561613        1.2520362589
  C         7.3586869950        3.0333335222       -0.5419324813
  H         8.1975258913        3.7113957389       -0.6813263335
  C         5.1974711234        1.2978588687       -0.1564971269
  H         4.3640560676        0.6173395621       -0.0294300706
  C         5.2152070469        2.1651508263       -1.2483810825
  H         4.3927517578        2.1357011881       -1.9612091651
  C         6.2864838600        3.0452789174       -1.4444981578
  O         6.2330218565        3.9066883817       -2.5062620188
  H         7.1321522970        4.2654843793       -2.7648469997
