1
# CELL(abcABC):  188.97261   188.97261   188.97261    90.00000    90.00000    90.00000  Step:           0  Bead:       0 p_centroid{atomic_unit}  cell{atomic_unit}
       H -2.01152e+00  5.30555e-01 -6.83934e-01
1
# CELL(abcABC):  188.97261   188.97261   188.97261    90.00000    90.00000    90.00000  Step:           1  Bead:       0 p_centroid{atomic_unit}  cell{atomic_unit}
       H -2.00345e+00  4.26049e-01 -7.89272e-01
1
# CELL(abcABC):  188.97261   188.97261   188.97261    90.00000    90.00000    90.00000  Step:           2  Bead:       0 p_centroid{atomic_unit}  cell{atomic_unit}
       H -1.92157e+00  5.52521e-01 -8.06135e-01
1
# CELL(abcABC):  188.97261   188.97261   188.97261    90.00000    90.00000    90.00000  Step:           3  Bead:       0 p_centroid{atomic_unit}  cell{atomic_unit}
       H -1.93674e+00  5.45244e-01 -8.49336e-01
1
# CELL(abcABC):  188.97261   188.97261   188.97261    90.00000    90.00000    90.00000  Step:           4  Bead:       0 p_centroid{atomic_unit}  cell{atomic_unit}
       H -1.94964e+00  5.36786e-01 -7.11402e-01
1
# CELL(abcABC):  188.97261   188.97261   188.97261    90.00000    90.00000    90.00000  Step:           5  Bead:       0 p_centroid{atomic_unit}  cell{atomic_unit}
       H -1.91213e+00  5.34394e-01 -6.28220e-01
1
# CELL(abcABC):  188.97261   188.97261   188.97261    90.00000    90.00000    90.00000  Step:           6  Bead:       0 p_centroid{atomic_unit}  cell{atomic_unit}
       H -1.79095e+00  5.00809e-01 -6.77786e-01
1
# CELL(abcABC):  188.97261   188.97261   188.97261    90.00000    90.00000    90.00000  Step:           7  Bead:       0 p_centroid{atomic_unit}  cell{atomic_unit}
       H -1.80155e+00  5.22839e-01 -6.21674e-01
1
# CELL(abcABC):  188.97261   188.97261   188.97261    90.00000    90.00000    90.00000  Step:           8  Bead:       0 p_centroid{atomic_unit}  cell{atomic_unit}
       H -1.78696e+00  3.91581e-01 -6.74563e-01
1
# CELL(abcABC):  188.97261   188.97261   188.97261    90.00000    90.00000    90.00000  Step:           9  Bead:       0 p_centroid{atomic_unit}  cell{atomic_unit}
       H -1.77702e+00  3.66074e-01 -6.11717e-01
