1
# CELL(abcABC):  188.97261   188.97261   188.97261    90.00000    90.00000    90.00000  Step:           0  Bead:       0 p_centroid{atomic_unit}  cell{atomic_unit}
       H -2.01152e+00  5.30555e-01 -6.83934e-01
1
# CELL(abcABC):  188.97261   188.97261   188.97261    90.00000    90.00000    90.00000  Step:           1  Bead:       0 p_centroid{atomic_unit}  cell{atomic_unit}
       H -1.90520e+00  5.37785e-01 -6.32717e-01
1
# CELL(abcABC):  188.97261   188.97261   188.97261    90.00000    90.00000    90.00000  Step:           2  Bead:       0 p_centroid{atomic_unit}  cell{atomic_unit}
       H -1.86800e+00  4.33629e-01 -7.08780e-01
1
# CELL(abcABC):  188.97261   188.97261   188.97261    90.00000    90.00000    90.00000  Step:           3  Bead:       0 p_centroid{atomic_unit}  cell{atomic_unit}
       H -1.84014e+00  3.71173e-01 -6.43806e-01
1
# CELL(abcABC):  188.97261   188.97261   188.97261    90.00000    90.00000    90.00000  Step:           4  Bead:       0 p_centroid{atomic_unit}  cell{atomic_unit}
       H -1.88777e+00  3.52723e-01 -7.27341e-01
1
# CELL(abcABC):  188.97261   188.97261   188.97261    90.00000    90.00000    90.00000  Step:           5  Bead:       0 p_centroid{atomic_unit}  cell{atomic_unit}
       H -1.88680e+00  2.29748e-01 -6.63553e-01
1
# CELL(abcABC):  188.97261   188.97261   188.97261    90.00000    90.00000    90.00000  Step:           6  Bead:       0 p_centroid{atomic_unit}  cell{atomic_unit}
       H -1.81279e+00  2.67742e-01 -6.58710e-01
1
# CELL(abcABC):  188.97261   188.97261   188.97261    90.00000    90.00000    90.00000  Step:           7  Bead:       0 p_centroid{atomic_unit}  cell{atomic_unit}
       H -1.86936e+00  3.41168e-01 -7.47031e-01
1
# CELL(abcABC):  188.97261   188.97261   188.97261    90.00000    90.00000    90.00000  Step:           8  Bead:       0 p_centroid{atomic_unit}  cell{atomic_unit}
       H -1.73937e+00  3.52853e-01 -7.34271e-01
1
# CELL(abcABC):  188.97261   188.97261   188.97261    90.00000    90.00000    90.00000  Step:           9  Bead:       0 p_centroid{atomic_unit}  cell{atomic_unit}
       H -1.77740e+00  4.45601e-01 -7.98267e-01
