192
# CELL(abcABC):   23.52896    23.52896    23.52896    90.00000    90.00000    90.00000  Step:       60000  Bead:       0 x_centroid{atomic_unit}  cell{atomic_unit}
       O -4.16234e+01  4.42940e+01 -1.90981e+01
       H -4.22955e+01  4.52655e+01 -2.04287e+01
       H -4.01231e+01  4.49547e+01 -1.86257e+01
       O  4.60177e+01  9.47767e+01 -4.03538e+01
       H  4.63535e+01  9.52061e+01 -4.21426e+01
       H  4.58519e+01  9.29928e+01 -4.05089e+01
       O  9.93002e+00  2.31222e+01 -6.57520e+01
       H  9.43035e+00  2.38021e+01 -6.73111e+01
       H  9.65608e+00  2.42430e+01 -6.44086e+01
       O  6.99176e+01 -5.18337e+01 -8.34877e+01
       H  6.89477e+01 -5.24078e+01 -8.49375e+01
       H  6.88904e+01 -5.06984e+01 -8.25038e+01
       O  6.57349e+01  1.09940e+02  6.76028e+01
       H  6.67808e+01  1.09437e+02  6.62441e+01
       H  6.46166e+01  1.11403e+02  6.72319e+01
       O -2.12081e+01  3.43860e+01 -4.80608e+00
       H -1.97454e+01  3.53682e+01 -5.07219e+00
       H -2.24550e+01  3.55639e+01 -4.48238e+00
       O  7.49094e+00 -2.51047e+01  1.26433e+01
       H  6.34406e+00 -2.56260e+01  1.13858e+01
       H  9.03688e+00 -2.48551e+01  1.16541e+01
       O -1.21116e+01  1.00823e+01  6.90544e+01
       H -1.07500e+01  8.97480e+00  6.88741e+01
       H -1.21877e+01  1.09744e+01  7.06436e+01
       O  9.97020e+01 -6.00617e+01  7.84166e+01
       H  9.87124e+01 -5.86075e+01  7.84777e+01
       H  1.01307e+02 -5.94426e+01  7.89358e+01
       O -5.30561e+01 -1.04869e+02 -3.84871e+01
       H -5.42079e+01 -1.06191e+02 -3.85072e+01
       H -5.13537e+01 -1.05586e+02 -3.88360e+01
       O -9.07523e+01  7.02277e+01  2.40935e+01
       H -8.93046e+01  7.11832e+01  2.35859e+01
       H -9.19848e+01  7.14547e+01  2.48053e+01
       O -1.10618e+02  8.38666e+01  6.58235e+01
       H -1.09497e+02  8.32911e+01  6.70098e+01
       H -1.10288e+02  8.55860e+01  6.61647e+01
       O  1.74099e+01 -5.02990e+01 -3.37676e+01
       H  1.83578e+01 -4.86932e+01 -3.37915e+01
       H  1.59533e+01 -5.01658e+01 -3.47493e+01
       O  1.03486e+02 -5.67082e+01  1.01170e+01
       H  1.03672e+02 -5.53996e+01  8.93611e+00
       H  1.02361e+02 -5.60940e+01  1.14778e+01
       O -3.02956e+01 -1.93751e+01  3.33965e+01
       H -2.99511e+01 -2.10768e+01  3.28885e+01
       H -2.99461e+01 -1.83071e+01  3.20476e+01
       O -7.31393e+01 -5.53002e+01 -3.15326e+01
       H -7.35067e+01 -5.68061e+01 -3.25681e+01
       H -7.34669e+01 -5.39371e+01 -3.26581e+01
       O  1.93391e+01 -4.05435e+01 -4.15205e+01
       H  1.93771e+01 -3.88641e+01 -4.21602e+01
       H  2.07539e+01 -4.14064e+01 -4.22313e+01
       O -3.03554e+01  9.35235e+01 -1.09508e+02
       H -2.88922e+01  9.23811e+01 -1.09779e+02
       H -3.19127e+01  9.26252e+01 -1.09443e+02
       O  1.06345e+02 -2.82735e+00  1.04955e+01
       H  1.06626e+02 -1.36395e+00  1.15529e+01
       H  1.06620e+02 -4.36650e+00  1.16064e+01
       O  9.42676e+01  4.32879e+01 -1.46508e+00
       H  9.57263e+01  4.40288e+01 -8.30130e-01
       H  9.48267e+01  4.20552e+01 -2.74583e+00
       O -2.50030e+01  5.76630e+01 -2.14472e+01
       H -2.50663e+01  5.94642e+01 -2.09722e+01
       H -2.32437e+01  5.72762e+01 -2.17048e+01
       O  1.06373e+01  1.94438e+01  7.03622e+01
       H  9.93066e+00  1.89179e+01  6.87810e+01
       H  1.04790e+01  2.11043e+01  7.04473e+01
       O  1.57271e+01  6.39207e+01 -6.44812e+01
       H  1.39867e+01  6.35899e+01 -6.49064e+01
       H  1.64793e+01  6.26791e+01 -6.34648e+01
       O  1.22130e+02 -1.75585e+00  1.74801e+01
       H  1.22934e+02 -1.48767e+00  1.57845e+01
       H  1.21569e+02 -1.11487e-01  1.75191e+01
       O -7.91139e+01  5.21446e+01  2.57366e+01
       H -7.77743e+01  5.22473e+01  2.69689e+01
       H -8.05637e+01  5.26151e+01  2.67179e+01
       O  3.27374e+01 -1.75861e+01  1.92639e+01
       H  3.24856e+01 -1.64606e+01  1.78474e+01
       H  3.32245e+01 -1.63580e+01  2.04954e+01
       O -2.77024e+01  6.19512e+00  1.38043e+01
       H -2.83202e+01  5.34018e+00  1.52467e+01
       H -2.86195e+01  5.44218e+00  1.23552e+01
       O  5.85623e+01  6.88876e+00  6.01694e+00
       H  5.80065e+01  5.15002e+00  5.87484e+00
       H  5.86981e+01  7.14483e+00  7.80097e+00
       O  9.15577e+01 -2.33819e+01 -3.38385e+01
       H  9.28395e+01 -2.22539e+01 -3.42649e+01
       H  9.09945e+01 -2.26394e+01 -3.22359e+01
       O  1.96292e+01 -6.79636e+01  1.76381e+01
       H  2.05515e+01 -6.70708e+01  1.87129e+01
       H  1.91857e+01 -6.92883e+01  1.87466e+01
       O -1.01905e+02  3.09363e+01  4.45374e+01
       H -1.00390e+02  3.20279e+01  4.42521e+01
       H -1.02004e+02  3.09288e+01  4.63402e+01
       O -9.74138e+00 -4.57380e+01  2.22594e+01
       H -9.10333e+00 -4.44732e+01  2.34479e+01
       H -9.76011e+00 -4.49564e+01  2.06008e+01
       O -4.86073e+01  6.30297e+01  2.30694e+00
       H -4.68148e+01  6.32496e+01  2.26432e+00
       H -4.93471e+01  6.35128e+01  7.12050e-01
       O  2.17861e+01  5.78414e+01 -1.04029e+01
       H  2.34079e+01  5.73622e+01 -9.73928e+00
       H  2.08696e+01  5.62103e+01 -1.01824e+01
       O -9.07300e+01 -3.69538e+01 -2.29456e+01
       H -9.09384e+01 -3.59091e+01 -2.44240e+01
       H -8.95583e+01 -3.59780e+01 -2.19327e+01
       O  4.34411e+01 -3.64393e+01 -2.64317e+01
       H  4.38383e+01 -3.64467e+01 -2.45735e+01
       H  4.25723e+01 -3.48665e+01 -2.66716e+01
       O  3.24174e+01  1.45906e+01  7.24073e+01
       H  3.30475e+01  1.60437e+01  7.14749e+01
       H  3.07201e+01  1.49685e+01  7.28482e+01
       O -1.94930e+01  7.42270e+01  8.86542e+01
       H -1.77686e+01  7.46887e+01  8.90328e+01
       H -1.99594e+01  7.54550e+01  8.74220e+01
       O -6.21651e+01  1.12545e+02  8.92096e+01
       H -6.32164e+01  1.13762e+02  8.84281e+01
       H -6.13062e+01  1.11997e+02  8.77567e+01
       O  2.06153e+01  4.25473e+01  7.66526e+01
       H  2.11102e+01  4.15600e+01  7.51637e+01
       H  1.89025e+01  4.20378e+01  7.68903e+01
       O  7.23804e+01  1.69278e+01 -5.49711e+00
       H  7.09141e+01  1.70267e+01 -6.37655e+00
       H  7.32167e+01  1.85949e+01 -5.61533e+00
       O  1.54887e+02 -4.33014e+01  1.78767e+01
       H  1.53196e+02 -4.25780e+01  1.80594e+01
       H  1.55966e+02 -4.21824e+01  1.87817e+01
       O -3.83250e+01 -2.19046e+01 -2.31193e+01
       H -3.85948e+01 -2.01123e+01 -2.27991e+01
       H -3.66189e+01 -2.19490e+01 -2.37855e+01
       O  1.52872e+01 -2.76650e+01 -5.09831e+01
       H  1.39603e+01 -2.81802e+01 -4.98408e+01
       H  1.58950e+01 -2.61926e+01 -5.02185e+01
       O  1.64707e+01 -2.69970e+01  7.19706e+01
       H  1.53454e+01 -2.58712e+01  7.27426e+01
       H  1.63862e+01 -2.86842e+01  7.25384e+01
       O  4.68202e+01 -4.08625e+01 -2.49664e+00
       H  4.63880e+01 -3.90536e+01 -2.68424e+00
       H  4.82946e+01 -4.09984e+01 -3.39051e+00
       O -6.43886e+01 -4.03530e+01 -8.30040e+01
       H -6.57215e+01 -4.03603e+01 -8.17432e+01
       H -6.48715e+01 -3.88854e+01 -8.40373e+01
       O  5.23610e+00  3.94647e+01  3.74365e+01
       H  4.01606e+00  3.95430e+01  3.88276e+01
       H  4.78008e+00  4.07893e+01  3.62572e+01
       O -6.90542e+01  5.42312e+01  3.86747e+01
       H -6.92270e+01  5.52806e+01  4.01495e+01
       H -7.04715e+01  5.31727e+01  3.82023e+01
       O -6.17407e+01  7.32822e+01  9.17353e+00
       H -6.04063e+01  7.33947e+01  1.03555e+01
       H -6.30273e+01  7.44709e+01  9.76550e+00
       O -4.81173e+01  1.08494e+01  8.23332e+00
       H -4.85541e+01  1.08853e+01  1.01589e+01
       H -4.81775e+01  9.09470e+00  7.80543e+00
       O  3.24722e+01  8.94595e+00  3.85872e+01
       H  3.21354e+01  1.06860e+01  3.88041e+01
       H  3.13095e+01  8.73133e+00  3.72217e+01
       O  2.59966e+01  1.46031e+01  1.72270e+02
       H  2.63393e+01  1.59722e+01  1.73428e+02
       H  2.48163e+01  1.33858e+01  1.72948e+02
       O -1.41278e+01 -6.59292e+00  2.95355e+01
       H -1.42709e+01 -7.39671e+00  2.78897e+01
       H -1.40272e+01 -4.81478e+00  2.91735e+01
       O -7.37572e+01 -2.37475e+01 -9.52833e+01
       H -7.49670e+01 -2.45795e+01 -9.40678e+01
       H -7.25149e+01 -2.50529e+01 -9.55220e+01
       O  1.47676e+00  4.99106e+01  1.28205e+02
       H  3.16573e+00  4.99789e+01  1.27860e+02
       H  8.42230e-01  4.92285e+01  1.26742e+02
       O -1.13292e+01 -6.10370e+01  3.42141e+01
       H -1.20709e+01 -5.94615e+01  3.38134e+01
       H -1.17261e+01 -6.12322e+01  3.58944e+01
       O -6.62223e-01  2.65355e+01  9.56804e+01
       H -2.42382e-01  2.78921e+01  9.44567e+01
       H -1.52547e+00  2.52700e+01  9.46686e+01
       O  9.85710e+01  4.27636e+01 -1.40086e+01
       H  9.87171e+01  4.30981e+01 -1.58810e+01
       H  9.69538e+01  4.34213e+01 -1.36284e+01
       O  8.32451e+01 -3.00668e+01  8.52061e+01
       H  8.42767e+01 -2.89074e+01  8.62905e+01
       H  8.45518e+01 -3.12042e+01  8.47587e+01
       O -1.01809e+01  2.49484e+01  5.98592e+01
       H -9.24593e+00  2.59403e+01  5.87523e+01
       H -1.02208e+01  2.56064e+01  6.15925e+01
       O  1.72207e+02  2.96980e+01  2.23942e+00
       H  1.72833e+02  3.07289e+01  3.67013e+00
       H  1.70775e+02  3.06539e+01  1.53852e+00
       O -4.31244e+01  8.61441e+01 -4.41448e+01
       H -4.27223e+01  8.78894e+01 -4.39974e+01
       H -4.37583e+01  8.57034e+01 -4.24707e+01
       O -5.63497e+01 -3.57527e+01  3.63312e+00
       H -5.72346e+01 -3.62403e+01  5.04069e+00
       H -5.54284e+01 -3.43485e+01  4.39378e+00
