1
CELL(abcABC):  200.000000 200.000000 200.000000 90.000000 90.000000 90.000000 cell{atomic_unit}  Traj: positions{angstrom}   Bead:       0
H -0.43282535550625584 0.5080748085294957 -2.1484557674822493e-19
1
CELL(abcABC):  200.000000 200.000000 200.000000 90.000000 90.000000 90.000000 cell{atomic_unit}  Traj: positions{angstrom}   Bead:       1
H -0.4238757828942647 0.49326728073461407 -2.147955922772914e-19
1
CELL(abcABC):  200.000000 200.000000 200.000000 90.000000 90.000000 90.000000 cell{atomic_unit}  Traj: positions{angstrom}   Bead:       2
H -0.40500447309189247 0.46435716982636666 -2.146912598091821e-19
1
CELL(abcABC):  200.000000 200.000000 200.000000 90.000000 90.000000 90.000000 cell{atomic_unit}  Traj: positions{angstrom}   Bead:       3
H -0.37641115050713336 0.4251008134680724 -2.1478562444303311e-19
1
CELL(abcABC):  200.000000 200.000000 200.000000 90.000000 90.000000 90.000000 cell{atomic_unit}  Traj: positions{angstrom}   Bead:       4
H -0.3416211264870467 0.3834837526488597 -2.1474464531509318e-19
1
CELL(abcABC):  200.000000 200.000000 200.000000 90.000000 90.000000 90.000000 cell{atomic_unit}  Traj: positions{angstrom}   Bead:       5
H -0.30552313132343395 0.34716168453789475 -2.1462400323529037e-19
1
CELL(abcABC):  200.000000 200.000000 200.000000 90.000000 90.000000 90.000000 cell{atomic_unit}  Traj: positions{angstrom}   Bead:       6
H -0.27131267904684964 0.31918211455722345 -2.1465130042956525e-19
1
CELL(abcABC):  200.000000 200.000000 200.000000 90.000000 90.000000 90.000000 cell{atomic_unit}  Traj: positions{angstrom}   Bead:       7
H -0.24032989949774639 0.2990290202760346 -2.146208737892358e-19
1
CELL(abcABC):  200.000000 200.000000 200.000000 90.000000 90.000000 90.000000 cell{atomic_unit}  Traj: positions{angstrom}   Bead:       8
H -0.21292767863391104 0.2849612794918219 -2.1457445672525534e-19
1
CELL(abcABC):  200.000000 200.000000 200.000000 90.000000 90.000000 90.000000 cell{atomic_unit}  Traj: positions{angstrom}   Bead:       9
H -0.18903901515684932 0.27524981434534457 -2.144950935521578e-19
1
CELL(abcABC):  200.000000 200.000000 200.000000 90.000000 90.000000 90.000000 cell{atomic_unit}  Traj: positions{angstrom}   Bead:       10
H -0.16843539279789635 0.2685426988987315 -2.1439882134971976e-19
1
CELL(abcABC):  200.000000 200.000000 200.000000 90.000000 90.000000 90.000000 cell{atomic_unit}  Traj: positions{angstrom}   Bead:       11
H -0.15083669248362325 0.26387705874226586 -2.1427924022136665e-19
1
CELL(abcABC):  200.000000 200.000000 200.000000 90.000000 90.000000 90.000000 cell{atomic_unit}  Traj: positions{angstrom}   Bead:       12
H -0.13595898909165358 0.2605962169477482 -2.14151782432889e-19
1
CELL(abcABC):  200.000000 200.000000 200.000000 90.000000 90.000000 90.000000 cell{atomic_unit}  Traj: positions{angstrom}   Bead:       13
H -0.12353629241460455 0.2582621429416245 -2.1401635958663412e-19
1
CELL(abcABC):  200.000000 200.000000 200.000000 90.000000 90.000000 90.000000 cell{atomic_unit}  Traj: positions{angstrom}   Bead:       14
H -0.11333071510690382 0.25658623514792483 -2.13879743869597e-19
1
CELL(abcABC):  200.000000 200.000000 200.000000 90.000000 90.000000 90.000000 cell{atomic_unit}  Traj: positions{angstrom}   Bead:       15
H -0.10513710108521726 0.2553798647622344 -2.1374798964631804e-19
1
CELL(abcABC):  200.000000 200.000000 200.000000 90.000000 90.000000 90.000000 cell{atomic_unit}  Traj: positions{angstrom}   Bead:       16
H -0.09878484257512093 0.25452068295563784 -2.1362918090992048e-19
1
CELL(abcABC):  200.000000 200.000000 200.000000 90.000000 90.000000 90.000000 cell{atomic_unit}  Traj: positions{angstrom}   Bead:       17
H -0.0941382573379964 0.25393030836190744 -2.1352998173539272e-19
1
CELL(abcABC):  200.000000 200.000000 200.000000 90.000000 90.000000 90.000000 cell{atomic_unit}  Traj: positions{angstrom}   Bead:       18
H -0.09109628778814144 0.25355990552888513 -2.1345872705526542e-19
1
CELL(abcABC):  200.000000 200.000000 200.000000 90.000000 90.000000 90.000000 cell{atomic_unit}  Traj: positions{angstrom}   Bead:       19
H -0.08959197403295222 0.25338118229738454 -2.1342166206237973e-19
