1
# CELL(abcABC):  188.97261   188.97261   188.97261    90.00000    90.00000    90.00000  Step:           0  Bead:       0 momenta{atomic_unit}  cell{atomic_unit}
       H -1.81067e+00  2.41073e-01 -1.26140e-01
1
# CELL(abcABC):  188.97261   188.97261   188.97261    90.00000    90.00000    90.00000  Step:           1  Bead:       0 momenta{atomic_unit}  cell{atomic_unit}
       H -2.13981e+00  9.29775e-02  1.07575e-01
1
# CELL(abcABC):  188.97261   188.97261   188.97261    90.00000    90.00000    90.00000  Step:           2  Bead:       0 momenta{atomic_unit}  cell{atomic_unit}
       H -2.02655e+00  3.19583e-01 -6.59613e-02
1
# CELL(abcABC):  188.97261   188.97261   188.97261    90.00000    90.00000    90.00000  Step:           3  Bead:       0 momenta{atomic_unit}  cell{atomic_unit}
       H -1.66634e+00  4.32751e-01 -3.67512e-01
1
# CELL(abcABC):  188.97261   188.97261   188.97261    90.00000    90.00000    90.00000  Step:           4  Bead:       0 momenta{atomic_unit}  cell{atomic_unit}
       H -1.46551e+00  5.60881e-01 -2.40766e-01
1
# CELL(abcABC):  188.97261   188.97261   188.97261    90.00000    90.00000    90.00000  Step:           5  Bead:       0 momenta{atomic_unit}  cell{atomic_unit}
       H -1.35664e+00  1.03990e+00  9.42748e-02
1
# CELL(abcABC):  188.97261   188.97261   188.97261    90.00000    90.00000    90.00000  Step:           6  Bead:       0 momenta{atomic_unit}  cell{atomic_unit}
       H -1.15281e+00  1.47847e+00  6.46196e-01
1
# CELL(abcABC):  188.97261   188.97261   188.97261    90.00000    90.00000    90.00000  Step:           7  Bead:       0 momenta{atomic_unit}  cell{atomic_unit}
       H -7.47873e-01  1.30353e+00  3.63435e-01
1
# CELL(abcABC):  188.97261   188.97261   188.97261    90.00000    90.00000    90.00000  Step:           8  Bead:       0 momenta{atomic_unit}  cell{atomic_unit}
       H -1.03191e+00  1.58482e+00 -1.72107e-01
1
# CELL(abcABC):  188.97261   188.97261   188.97261    90.00000    90.00000    90.00000  Step:           9  Bead:       0 momenta{atomic_unit}  cell{atomic_unit}
       H -9.53788e-01  1.64634e+00 -3.40090e-02
