1
# CELL(abcABC):  188.97261   188.97261   188.97261    90.00000    90.00000    90.00000  Step:           0  Bead:       0 positions{atomic_unit}  cell{atomic_unit}
       H  0.00000e+00  0.00000e+00  0.00000e+00
1
# CELL(abcABC):  188.97261   188.97261   188.97261    90.00000    90.00000    90.00000  Step:           1  Bead:       0 positions{atomic_unit}  cell{atomic_unit}
       H -3.52652e-03  6.23688e-04  4.25954e-04
1
# CELL(abcABC):  188.97261   188.97261   188.97261    90.00000    90.00000    90.00000  Step:           2  Bead:       0 positions{atomic_unit}  cell{atomic_unit}
       H -6.67372e-03  2.78802e-03  1.36476e-03
1
# CELL(abcABC):  188.97261   188.97261   188.97261    90.00000    90.00000    90.00000  Step:           3  Bead:       0 positions{atomic_unit}  cell{atomic_unit}
       H -1.09661e-02  4.82050e-03  2.02448e-03
1
# CELL(abcABC):  188.97261   188.97261   188.97261    90.00000    90.00000    90.00000  Step:           4  Bead:       0 positions{atomic_unit}  cell{atomic_unit}
       H -1.61211e-02  6.35135e-03  2.05940e-03
1
# CELL(abcABC):  188.97261   188.97261   188.97261    90.00000    90.00000    90.00000  Step:           5  Bead:       0 positions{atomic_unit}  cell{atomic_unit}
       H -2.00908e-02  9.02570e-03  2.06308e-03
1
# CELL(abcABC):  188.97261   188.97261   188.97261    90.00000    90.00000    90.00000  Step:           6  Bead:       0 positions{atomic_unit}  cell{atomic_unit}
       H -2.45612e-02  1.17122e-02  1.57244e-03
1
# CELL(abcABC):  188.97261   188.97261   188.97261    90.00000    90.00000    90.00000  Step:           7  Bead:       0 positions{atomic_unit}  cell{atomic_unit}
       H -2.97186e-02  1.43984e-02 -8.21739e-04
1
# CELL(abcABC):  188.97261   188.97261   188.97261    90.00000    90.00000    90.00000  Step:           8  Bead:       0 positions{atomic_unit}  cell{atomic_unit}
       H -3.46305e-02  1.74616e-02 -2.23693e-03
1
# CELL(abcABC):  188.97261   188.97261   188.97261    90.00000    90.00000    90.00000  Step:           9  Bead:       0 positions{atomic_unit}  cell{atomic_unit}
       H -3.88403e-02  2.06848e-02 -4.10684e-03
