1
# CELL(abcABC):  188.97261   188.97261   188.97261    90.00000    90.00000    90.00000  Step:           0  Bead:       0 velocities{atomic_unit}  cell{atomic_unit}
       H -9.85470e-04  1.31206e-04 -6.86526e-05
1
# CELL(abcABC):  188.97261   188.97261   188.97261    90.00000    90.00000    90.00000  Step:           1  Bead:       0 velocities{atomic_unit}  cell{atomic_unit}
       H -1.16461e-03  5.06038e-05  5.85488e-05
1
# CELL(abcABC):  188.97261   188.97261   188.97261    90.00000    90.00000    90.00000  Step:           2  Bead:       0 velocities{atomic_unit}  cell{atomic_unit}
       H -1.10296e-03  1.73936e-04 -3.59000e-05
1
# CELL(abcABC):  188.97261   188.97261   188.97261    90.00000    90.00000    90.00000  Step:           3  Bead:       0 velocities{atomic_unit}  cell{atomic_unit}
       H -9.06920e-04  2.35528e-04 -2.00021e-04
1
# CELL(abcABC):  188.97261   188.97261   188.97261    90.00000    90.00000    90.00000  Step:           4  Bead:       0 velocities{atomic_unit}  cell{atomic_unit}
       H -7.97616e-04  3.05264e-04 -1.31039e-04
1
# CELL(abcABC):  188.97261   188.97261   188.97261    90.00000    90.00000    90.00000  Step:           5  Bead:       0 velocities{atomic_unit}  cell{atomic_unit}
       H -7.38360e-04  5.65973e-04  5.13099e-05
1
# CELL(abcABC):  188.97261   188.97261   188.97261    90.00000    90.00000    90.00000  Step:           6  Bead:       0 velocities{atomic_unit}  cell{atomic_unit}
       H -6.27426e-04  8.04668e-04  3.51698e-04
1
# CELL(abcABC):  188.97261   188.97261   188.97261    90.00000    90.00000    90.00000  Step:           7  Bead:       0 velocities{atomic_unit}  cell{atomic_unit}
       H -4.07036e-04  7.09456e-04  1.97803e-04
1
# CELL(abcABC):  188.97261   188.97261   188.97261    90.00000    90.00000    90.00000  Step:           8  Bead:       0 velocities{atomic_unit}  cell{atomic_unit}
       H -5.61626e-04  8.62553e-04 -9.36707e-05
1
# CELL(abcABC):  188.97261   188.97261   188.97261    90.00000    90.00000    90.00000  Step:           9  Bead:       0 velocities{atomic_unit}  cell{atomic_unit}
       H -5.19107e-04  8.96032e-04 -1.85097e-05
