6
# CELL(abcABC):  200.00000   200.00000   200.00000    90.00000    90.00000    90.00000  Step:          30  Bead:       0 positions{angstrom}  cell{atomic_unit}
       O  1.35946e-01 -9.67988e-01  2.41370e-01
       H -7.79760e-01 -8.68954e-01  3.01041e-02
       H  5.35490e-01 -1.44232e+00 -4.71603e-01
       O  1.42452e+00  1.38886e+00  9.26138e-01
       H 1.509691  2.100034  1.326755
       H  9.82027e-01  5.67085e-01  7.04984e-01


