192
# CELL(abcABC):   23.38414    23.38414    23.38414    90.00000    90.00000    90.00000  Step:       60000  Bead:       0 x_centroid{atomic_unit}  cell{atomic_unit}
       O -3.30666e+01  5.05897e+01 -1.36898e+01
       H -3.14717e+01  5.00991e+01 -1.43250e+01
       H -3.37033e+01  5.18282e+01 -1.49025e+01
       O  4.20529e+01  9.50998e+01 -6.15593e+01
       H  4.30264e+01  9.64009e+01 -6.21512e+01
       H  4.20618e+01  9.38391e+01 -6.29861e+01
       O  1.20801e+01  2.28772e+01 -4.89727e+01
       H  1.04024e+01  2.25832e+01 -4.84212e+01
       H  1.31024e+01  2.23767e+01 -4.76008e+01
       O  6.25554e+01 -3.60421e+01 -9.67095e+01
       H  6.08640e+01 -3.52562e+01 -9.64318e+01
       H  6.35445e+01 -3.46530e+01 -9.60976e+01
       O  5.45938e+01  1.32963e+02  6.72096e+01
       H  5.30174e+01  1.32638e+02  6.62835e+01
       H  5.56697e+01  1.33718e+02  6.59927e+01
       O -2.77965e+01  2.75490e+01 -1.61761e+00
       H -2.81411e+01  2.58649e+01 -2.25286e+00
       H -2.93217e+01  2.83364e+01 -1.89466e+00
       O  2.05836e+01 -1.94209e+01  3.54063e+00
       H  1.98190e+01 -1.95084e+01  1.81605e+00
       H  2.14288e+01 -1.77729e+01  3.80974e+00
       O  4.94086e+00  3.18422e+00  4.71637e+01
       H  4.34575e+00  3.74687e+00  4.55492e+01
       H  3.43867e+00  2.14064e+00  4.77957e+01
       O  8.15324e+01 -4.31498e+01  8.85347e+01
       H  8.29521e+01 -4.26993e+01  8.74667e+01
       H  8.18501e+01 -4.48310e+01  8.92350e+01
       O -4.69492e+01 -1.09037e+02 -4.14473e+01
       H -4.51846e+01 -1.08840e+02 -4.15498e+01
       H -4.69691e+01 -1.10223e+02 -3.99361e+01
       O -9.62602e+01  6.01823e+01  2.35473e+01
       H -9.49222e+01  5.92820e+01  2.26999e+01
       H -9.57459e+01  6.19320e+01  2.34797e+01
       O -9.92223e+01  6.63199e+01  4.66446e+01
       H -9.94032e+01  6.71881e+01  4.82807e+01
       H -9.76256e+01  6.53858e+01  4.67301e+01
       O  2.30662e+01 -6.96888e+01 -2.91484e+01
       H  2.19783e+01 -6.92108e+01 -3.05803e+01
       H  2.16752e+01 -6.99592e+01 -2.80599e+01
       O  9.72313e+01 -5.74831e+01  3.22836e+01
       H  9.65453e+01 -5.80090e+01  3.38759e+01
       H  9.90888e+01 -5.78439e+01  3.26154e+01
       O -1.40067e+00 -5.42818e+00  2.97239e+01
       H -2.68245e+00 -4.30553e+00  2.91509e+01
       H -1.84067e+00 -7.15128e+00  2.98282e+01
       O -6.87592e+01 -2.78185e+01 -2.93508e+01
       H -6.95491e+01 -2.62077e+01 -2.94526e+01
       H -6.70764e+01 -2.71525e+01 -2.99174e+01
       O -2.21002e+00 -5.73029e+01 -4.14799e+01
       H -2.87873e+00 -5.70309e+01 -4.31594e+01
       H -1.60009e+00 -5.89584e+01 -4.14066e+01
       O -3.80609e+01  1.04329e+02 -8.36784e+01
       H -3.78965e+01  1.03255e+02 -8.22540e+01
       H -3.74185e+01  1.03312e+02 -8.51023e+01
       O  8.43029e+01  1.86725e+01  7.16609e+00
       H  8.38219e+01  1.69242e+01  7.39197e+00
       H  8.39358e+01  1.94551e+01  8.80435e+00
       O  1.16237e+02  6.48552e+01 -2.44601e+01
       H  1.17476e+02  6.49166e+01 -2.31662e+01
       H  1.17118e+02  6.56741e+01 -2.58611e+01
       O -4.38960e+00  4.79154e+01 -9.40336e+00
       H -5.51843e+00  4.93112e+01 -9.12054e+00
       H -4.44277e+00  4.77616e+01 -1.11660e+01
       O  1.60371e+01  1.26720e+01  7.70850e+01
       H  1.62284e+01  1.28824e+01  7.88903e+01
       H  1.78321e+01  1.28621e+01  7.65817e+01
       O  3.39279e+00  8.42552e+01 -5.15829e+01
       H  3.15357e+00  8.32614e+01 -5.31555e+01
       H  2.59952e+00  8.58457e+01 -5.19941e+01
       O  1.05983e+02 -1.87590e+01  5.00025e+01
       H  1.06486e+02 -1.82216e+01  4.83352e+01
       H  1.04261e+02 -1.93456e+01  5.01533e+01
       O -7.09931e+01  5.39601e+01  4.25434e+01
       H -7.09037e+01  5.54880e+01  4.35018e+01
       H -7.21083e+01  5.28692e+01  4.34588e+01
       O  3.96943e+01 -3.27115e+01 -1.14222e+01
       H  4.09075e+01 -3.14589e+01 -1.07271e+01
       H  3.78750e+01 -3.23504e+01 -1.12518e+01
       O -3.26795e+01 -1.74664e+01  2.17216e+01
       H -3.21139e+01 -1.58314e+01  2.10905e+01
       H -3.38144e+01 -1.80835e+01  2.04205e+01
       O  5.25113e+01  2.15729e+01  4.00664e+01
       H  5.29106e+01  2.32615e+01  3.93614e+01
       H  5.27166e+01  2.16622e+01  4.19225e+01
       O  9.79335e+01 -1.09144e+01 -1.97519e+01
       H  9.97737e+01 -1.11653e+01 -1.99255e+01
       H  9.75625e+01 -1.08094e+01 -1.80359e+01
       O  7.88024e+00 -7.49792e+01  1.33434e+01
       H  6.47545e+00 -7.50059e+01  1.22380e+01
       H  7.41823e+00 -7.37127e+01  1.46220e+01
       O -9.74432e+01  4.07862e+01  6.07386e+01
       H -9.67434e+01  4.02775e+01  6.23740e+01
       H -9.89264e+01  4.17145e+01  6.13196e+01
       O  8.04458e+00 -3.97669e+01  4.25391e+01
       H  8.99956e+00 -4.12709e+01  4.22097e+01
       H  6.32611e+00 -4.04322e+01  4.26230e+01
       O -6.32563e+01  4.57265e+01  2.18026e+01
       H -6.31829e+01  4.47097e+01  2.34022e+01
       H -6.37309e+01  4.73457e+01  2.25502e+01
       O  2.17368e+01  3.18343e+01 -9.27564e+00
       H  2.01130e+01  3.21209e+01 -9.68188e+00
       H  2.17180e+01  3.09849e+01 -7.70903e+00
       O -8.93583e+01 -2.89282e+01 -3.70691e+01
       H -9.10493e+01 -2.81992e+01 -3.68596e+01
       H -8.97812e+01 -3.06787e+01 -3.75828e+01
       O  5.62782e+01 -3.71389e+01 -4.34035e+01
       H  5.68370e+01 -3.55084e+01 -4.27426e+01
       H  5.68988e+01 -3.72028e+01 -4.51420e+01
       O  3.08345e+01  3.09046e+01  6.09241e+01
       H  3.11792e+01  3.09504e+01  6.26903e+01
       H  3.03428e+01  2.92152e+01  6.05414e+01
       O -3.10751e+01  6.75516e+01  8.54413e+01
       H -2.95597e+01  6.86319e+01  8.52430e+01
       H -3.21384e+01  6.76619e+01  8.39341e+01
       O -3.39693e+01  1.24974e+02  1.00769e+02
       H -3.30645e+01  1.26519e+02  1.01003e+02
       H -3.41316e+01  1.24816e+02  9.89345e+01
       O  3.34200e+01  1.09557e+01  4.49048e+01
       H  3.23643e+01  9.67113e+00  4.39795e+01
       H  3.26336e+01  1.25733e+01  4.46788e+01
       O  5.55694e+01  2.08179e+00 -1.43332e+01
       H  5.72937e+01  2.65978e+00 -1.43123e+01
       H  5.48379e+01  2.79100e+00 -1.58493e+01
       O  1.94522e+02 -2.83572e+01  2.50218e+01
       H  1.92749e+02 -2.88515e+01  2.55039e+01
       H  1.94627e+02 -2.93164e+01  2.34661e+01
       O -2.07121e+01 -1.21128e+01 -3.24230e+01
       H -1.92910e+01 -1.32072e+01 -3.26208e+01
       H -2.22169e+01 -1.31451e+01 -3.24168e+01
       O  4.83392e+00 -2.50909e+01 -4.03799e+01
       H  6.49258e+00 -2.44880e+01 -4.06126e+01
       H  4.97858e+00 -2.64569e+01 -3.92419e+01
       O  3.55661e+01 -2.15996e+00  5.81308e+01
       H  3.47821e+01 -6.74316e-01  5.73646e+01
       H  3.41972e+01 -3.19375e+00  5.86453e+01
       O  1.24894e+01 -5.18341e+01 -4.84899e+00
       H  1.36451e+01 -5.14447e+01 -6.18823e+00
       H  1.22342e+01 -5.03083e+01 -3.85017e+00
       O -2.85187e+01 -9.57392e+01 -8.85275e+01
       H -3.00687e+01 -9.66433e+01 -8.79298e+01
       H -2.91734e+01 -9.42434e+01 -8.93907e+01
       O -1.74301e+01  2.55490e+01  3.65545e+01
       H -1.60667e+01  2.53155e+01  3.51895e+01
       H -1.90554e+01  2.49205e+01  3.59057e+01
       O -4.76652e+01  2.85780e+01  3.30942e+01
       H -4.74544e+01  2.95292e+01  3.46376e+01
       H -4.66664e+01  2.70040e+01  3.33085e+01
       O -9.17858e+01  8.09002e+01 -8.28285e-01
       H -9.10011e+01  8.10374e+01  8.40797e-01
       H -9.08043e+01  8.20005e+01 -1.94465e+00
       O -5.37217e+01  9.83442e+00 -8.66855e+00
       H -5.41556e+01  1.04980e+01 -7.02458e+00
       H -5.39084e+01  1.13057e+01 -9.79823e+00
       O  1.43059e+01  5.07446e-03  4.93203e+01
       H  1.29112e+01 -4.64052e-01  5.03917e+01
       H  1.41523e+01  1.76793e+00  4.94909e+01
       O  2.42774e+01  2.80013e-01  1.66836e+02
       H  2.28916e+01  1.42690e+00  1.67221e+02
       H  2.51450e+01 -3.28811e-01  1.68218e+02
       O -9.27901e+00 -7.77466e+00  4.64908e+01
       H -1.03485e+01 -6.92499e+00  4.52574e+01
       H -8.21364e+00 -6.46689e+00  4.70046e+01
       O -6.76183e+01  1.76207e+01 -9.07021e+01
       H -6.86680e+01  1.83129e+01 -8.93835e+01
       H -6.74999e+01  1.58460e+01 -9.04308e+01
       O  1.54563e+01  5.15694e+01  1.08227e+02
       H  1.58019e+01  5.33329e+01  1.08259e+02
       H  1.50345e+01  5.15075e+01  1.06449e+02
       O  3.48042e+00 -4.25934e+01  4.25790e+01
       H  2.56926e+00 -4.40116e+01  4.18992e+01
       H  2.20768e+00 -4.13187e+01  4.30474e+01
       O -1.29013e+01  2.17130e+01  7.52496e+01
       H -1.39849e+01  2.06897e+01  7.42129e+01
       H -1.16856e+01  2.05242e+01  7.59815e+01
       O  8.15156e+01  3.86076e+01 -1.17941e+01
       H  8.04326e+01  3.71649e+01 -1.23985e+01
       H  8.02323e+01  3.97486e+01 -1.12545e+01
       O  5.81125e+01 -3.21588e+01  7.48508e+01
       H  5.96163e+01 -3.30115e+01  7.52871e+01
       H  5.86072e+01 -3.13108e+01  7.32361e+01
       O -5.10458e+00  2.31837e+01  4.28768e+01
       H -5.46875e+00  2.18719e+01  4.41679e+01
       H -6.54405e+00  2.30318e+01  4.18596e+01
       O  1.63142e+02  1.97250e+01 -1.23561e+01
       H  1.62570e+02  1.92678e+01 -1.40071e+01
       H  1.61580e+02  1.92688e+01 -1.13379e+01
       O -6.26538e+01  9.83431e+01 -4.20451e+01
       H -6.17299e+01  9.99669e+01 -4.22216e+01
       H -6.39924e+01  9.83106e+01 -4.32511e+01
       O -6.84586e+01 -2.26416e+01  3.33611e+01
       H -6.93966e+01 -2.40657e+01  3.40751e+01
       H -6.70588e+01 -2.33044e+01  3.24378e+01
