192
# CELL(abcABC):   23.40444    23.40444    23.40444    90.00000    90.00000    90.00000  Step:       60000  Bead:       0 x_centroid{atomic_unit}  cell{atomic_unit}
       O -2.59816e+01  9.68373e+01 -4.48977e-01
       H -2.66581e+01  9.51306e+01 -7.06115e-01
       H -2.66323e+01  9.79959e+01 -1.60111e+00
       O  4.89416e+01  8.03513e+01 -4.69650e+01
       H  4.78635e+01  7.92077e+01 -4.62414e+01
       H  4.83031e+01  8.19261e+01 -4.62236e+01
       O  1.38810e+01  3.76130e+01 -8.48836e+01
       H  1.52319e+01  3.64584e+01 -8.54252e+01
       H  1.30297e+01  3.85147e+01 -8.61978e+01
       O  7.72644e+01 -4.51976e+01 -7.30627e+01
       H  7.76018e+01 -4.57314e+01 -7.46822e+01
       H  7.54603e+01 -4.50282e+01 -7.30112e+01
       O  8.33530e+01  1.18279e+02  1.99889e+01
       H  8.27208e+01  1.16687e+02  1.96362e+01
       H  8.28255e+01  1.18753e+02  2.16501e+01
       O -1.32762e+01  1.92094e+01  3.77800e+01
       H -1.24208e+01  2.08398e+01  3.77489e+01
       H -1.18675e+01  1.80506e+01  3.72415e+01
       O  1.87337e+01 -2.89506e+01 -1.36290e+01
       H  1.91477e+01 -2.91999e+01 -1.53710e+01
       H  1.96920e+01 -2.74003e+01 -1.30687e+01
       O -2.90011e+01  2.28120e+01  6.86902e+01
       H -3.00147e+01  2.21579e+01  7.01009e+01
       H -2.99555e+01  2.42897e+01  6.81330e+01
       O  6.78800e+01 -3.19795e+01  6.03510e+01
       H  6.94556e+01 -3.12697e+01  6.05725e+01
       H  6.70879e+01 -3.09398e+01  5.91385e+01
       O -3.95774e+01 -7.04240e+01 -3.12361e+01
       H -4.04867e+01 -6.95596e+01 -3.25316e+01
       H -3.94239e+01 -7.20633e+01 -3.19298e+01
       O -1.10058e+02  6.20536e+01  1.78219e+01
       H -1.09522e+02  6.17324e+01  1.95450e+01
       H -1.08858e+02  6.16134e+01  1.65437e+01
       O -1.17951e+02  5.99457e+01  9.61149e+01
       H -1.18489e+02  6.14399e+01  9.54992e+01
       H -1.18940e+02  5.99289e+01  9.76056e+01
       O  2.65697e+01 -1.04616e+02 -1.32031e+01
       H  2.79678e+01 -1.04694e+02 -1.44019e+01
       H  2.58300e+01 -1.02986e+02 -1.31958e+01
       O  9.33080e+01 -4.72493e+01  3.07448e+00
       H  9.40439e+01 -4.62080e+01  1.86094e+00
       H  9.40373e+01 -4.66976e+01  4.60949e+00
       O -4.16150e+01 -2.03257e+01  5.86901e+01
       H -4.01896e+01 -1.94558e+01  5.94329e+01
       H -4.29748e+01 -1.92941e+01  5.93035e+01
       O -5.05956e+01 -2.87420e+01 -1.88176e+01
       H -5.17497e+01 -3.00216e+01 -1.94683e+01
       H -5.02253e+01 -2.78646e+01 -2.02978e+01
       O -1.98929e+00 -4.84422e+01 -8.25496e+01
       H -6.35564e-01 -4.80971e+01 -8.36789e+01
       H -1.30819e+00 -4.86231e+01 -8.08927e+01
       O -4.68558e+01  9.20643e+01 -7.75285e+01
       H -4.86729e+01  9.17229e+01 -7.73743e+01
       H -4.59230e+01  9.04450e+01 -7.78934e+01
       O  6.43474e+01  9.48470e+00  2.57847e+01
       H  6.47416e+01  8.99874e+00  2.40715e+01
       H  6.42758e+01  1.13546e+01  2.55629e+01
       O  6.47500e+01  4.42284e+01 -7.00375e+00
       H  6.39289e+01  4.46561e+01 -5.39997e+00
       H  6.46165e+01  4.58403e+01 -7.81638e+00
       O -1.30045e+01  6.70126e+01 -3.66353e+00
       H -1.32667e+01  6.63539e+01 -5.35287e+00
       H -1.45994e+01  6.67322e+01 -2.71031e+00
       O  8.03068e+00  3.11108e+01  7.44574e+01
       H  9.19490e+00  3.14839e+01  7.32145e+01
       H  8.15189e+00  2.92993e+01  7.48470e+01
       O  3.45432e+01  7.85314e+01 -7.05720e+01
       H  3.31097e+01  7.79802e+01 -7.15982e+01
       H  3.59957e+01  7.84576e+01 -7.15900e+01
       O  8.96572e+01 -3.73372e+01  2.05100e+01
       H  9.05726e+01 -3.84017e+01  1.94380e+01
       H  8.98790e+01 -3.56551e+01  1.98206e+01
       O -8.66876e+01  8.32346e+01 -2.01795e-01
       H -8.78994e+01  8.18796e+01 -1.40167e-01
       H -8.53019e+01  8.25703e+01  8.03623e-01
       O  3.90205e+01 -6.40390e+01  3.76891e+01
       H  4.05804e+01 -6.30743e+01  3.76210e+01
       H  3.85367e+01 -6.37570e+01  3.59909e+01
       O -5.64807e+01 -3.30200e+01 -4.66127e+00
       H -5.64702e+01 -3.48556e+01 -4.51109e+00
       H -5.67161e+01 -3.27073e+01 -6.50718e+00
       O  6.60523e+01  9.95242e+00  1.26747e+01
       H  6.68075e+01  1.14699e+01  1.32598e+01
       H  6.71721e+01  9.42174e+00  1.13800e+01
       O  8.22738e+01 -3.01323e+01 -2.36994e+01
       H  8.16444e+01 -2.89552e+01 -2.49607e+01
       H  8.27949e+01 -3.15963e+01 -2.46862e+01
       O  8.37334e+00 -4.37298e+01  6.86623e+00
       H  1.02833e+01 -4.37089e+01  7.06628e+00
       H  7.63866e+00 -4.37693e+01  8.61428e+00
       O -7.09987e+01  3.04340e+01  7.29346e+01
       H -7.13371e+01  2.91032e+01  7.17872e+01
       H -7.26932e+01  3.11754e+01  7.32603e+01
       O  4.74139e+00 -4.97441e+01  3.35456e+01
       H  6.47551e+00 -4.91836e+01  3.31913e+01
       H  4.38509e+00 -5.12215e+01  3.25810e+01
       O -2.03100e+01  4.15168e+01  1.42604e+01
       H -1.94089e+01  4.23103e+01  1.28217e+01
       H -1.90532e+01  4.08121e+01  1.52882e+01
       O  1.03940e+01  6.74350e+01 -1.60872e+01
       H  1.05332e+01  6.58778e+01 -1.70087e+01
       H  1.20627e+01  6.75290e+01 -1.51342e+01
       O -9.69698e+01 -5.22251e+01 -4.79511e+01
       H -9.74781e+01 -5.31623e+01 -4.93047e+01
       H -9.78530e+01 -5.07022e+01 -4.81888e+01
       O  3.74481e+01 -4.30464e+01 -4.08638e+01
       H  3.88516e+01 -4.40528e+01 -4.11227e+01
       H  3.79867e+01 -4.16172e+01 -3.98208e+01
       O  2.87713e+01  1.63322e+01  2.64890e+01
       H  2.86816e+01  1.77600e+01  2.53213e+01
       H  2.93029e+01  1.51788e+01  2.51383e+01
       O -5.07919e+00  4.76614e+01  9.90819e+01
       H -3.91261e+00  4.81682e+01  9.78638e+01
       H -4.44242e+00  4.68985e+01  1.00573e+02
       O -1.06646e+01  1.87627e+02  8.44083e+01
       H -1.21345e+01  1.88576e+02  8.39383e+01
       H -1.04661e+01  1.88029e+02  8.61550e+01
       O  8.39521e+00  6.37447e+00  4.21959e+01
       H  6.87772e+00  7.51879e+00  4.20246e+01
       H  8.06613e+00  4.75501e+00  4.30060e+01
       O  6.88001e+01  5.84836e+00 -5.36141e+00
       H  6.83371e+01  4.64529e+00 -6.61648e+00
       H  7.03041e+01  6.89200e+00 -5.69549e+00
       O  2.04011e+02 -3.22369e+01  2.55181e+01
       H  2.02860e+02 -3.09444e+01  2.54075e+01
       H  2.05061e+02 -3.19955e+01  2.40432e+01
       O -3.63660e+01 -7.51726e+00  4.77861e+00
       H -3.55398e+01 -6.95006e+00  3.15617e+00
       H -3.80237e+01 -7.20043e+00  4.56243e+00
       O -2.09878e+01 -5.34326e+01 -3.96175e+01
       H -1.98416e+01 -5.33134e+01 -4.10345e+01
       H -2.24986e+01 -5.34324e+01 -4.04254e+01
       O  5.89697e+00 -2.82823e+00  9.34028e+01
       H  6.82596e+00 -1.89457e+00  9.47156e+01
       H  5.34768e+00 -1.45004e+00  9.23467e+01
       O  5.42252e+01 -5.84019e+01  7.44527e+00
       H  5.42014e+01 -5.98250e+01  6.19513e+00
       H  5.54580e+01 -5.72457e+01  7.03102e+00
       O -4.46699e+01 -2.20566e+01 -7.33083e+01
       H -4.61128e+01 -2.10208e+01 -7.35503e+01
       H -4.52108e+01 -2.36207e+01 -7.39561e+01
       O -2.19356e+01  4.76878e+01  3.11117e+01
       H -2.13405e+01  4.93814e+01  3.06710e+01
       H -2.05724e+01  4.69817e+01  3.21054e+01
       O -5.49216e+01  4.42961e+01  4.91623e+01
       H -5.40753e+01  4.50100e+01  5.05881e+01
       H -5.64840e+01  4.51126e+01  4.91972e+01
       O -4.21378e+00  6.10753e+01  1.87491e+01
       H -3.58723e+00  6.13068e+01  1.70987e+01
       H -6.00132e+00  6.08562e+01  1.85845e+01
       O -2.09486e+01 -1.56579e+01 -9.67461e+00
       H -1.98409e+01 -1.49630e+01 -8.43516e+00
       H -2.09785e+01 -1.42797e+01 -1.07731e+01
       O  9.38668e+00  2.88936e+01  3.68364e+01
       H  9.55375e+00  3.06114e+01  3.63505e+01
       H  9.29694e+00  2.88952e+01  3.85556e+01
       O  5.66182e+01 -6.70297e-01  1.90032e+02
       H  5.66828e+01 -4.64130e-01  1.91858e+02
       H  5.68159e+01  9.43175e-01  1.89242e+02
       O -8.74057e+00 -2.55789e+01  5.71056e+01
       H -9.39913e+00 -2.48009e+01  5.85701e+01
       H -7.47694e+00 -2.69719e+01  5.73378e+01
       O -3.62122e+01  1.04947e+01 -1.05343e+02
       H -3.48917e+01  1.15676e+01 -1.05962e+02
       H -3.74000e+01  1.08966e+01 -1.06681e+02
       O  2.59716e+01  5.25256e+01  1.00339e+02
       H  2.77013e+01  5.27408e+01  9.98601e+01
       H  2.50025e+01  5.30181e+01  9.88503e+01
       O -8.76132e+00 -3.84937e+01  1.91850e+01
       H -8.73117e+00 -3.96045e+01  1.77582e+01
       H -6.91222e+00 -3.84676e+01  1.93771e+01
       O -2.88488e+01 -1.20409e+01  1.00941e+02
       H -2.74951e+01 -1.28420e+01  1.01734e+02
       H -2.94427e+01 -1.29570e+01  9.94915e+01
       O  7.45867e+01  7.98653e+01 -5.20877e+00
       H  7.34371e+01  7.97869e+01 -3.78601e+00
       H  7.49980e+01  8.16340e+01 -5.27803e+00
       O  1.40600e+01 -3.06516e+01  8.36021e+01
       H  1.54913e+01 -2.97237e+01  8.40440e+01
       H  1.40649e+01 -3.13344e+01  8.18624e+01
       O -6.34799e-01  9.10462e+00  5.58948e+01
       H  6.71691e-01  1.03550e+01  5.60595e+01
       H  3.02199e-01  7.63579e+00  5.50710e+01
       O  1.75889e+02  3.67805e+00 -2.21899e+01
       H  1.75459e+02  5.42713e+00 -2.24494e+01
       H  1.76409e+02  3.84418e+00 -2.03729e+01
       O -7.44788e+01  7.25346e+01 -7.88264e+01
       H -7.57014e+01  7.37862e+01 -7.92301e+01
       H -7.35325e+01  7.24637e+01 -8.03614e+01
       O -5.59214e+01 -1.58756e+01  9.49214e+00
       H -5.52256e+01 -1.43371e+01  8.91233e+00
       H -5.75481e+01 -1.54238e+01  1.00704e+01
