192
# CELL(abcABC):   24.09499    24.09499    24.09499    90.00000    90.00000    90.00000  Step:       60000  Bead:       0 x_centroid{atomic_unit}  cell{atomic_unit}
       O -2.69197e+01  6.08921e+01 -3.06397e+01
       H -2.80564e+01  6.09633e+01 -3.20445e+01
       H -2.63476e+01  5.91755e+01 -3.09844e+01
       O  4.01502e+01  1.01375e+02 -8.01879e+01
       H  4.13812e+01  1.00069e+02 -8.01095e+01
       H  3.97072e+01  1.01531e+02 -7.84589e+01
       O  2.03688e+01  3.85538e+01 -7.37433e+01
       H  2.12893e+01  3.74716e+01 -7.48280e+01
       H  1.87246e+01  3.80937e+01 -7.39543e+01
       O  5.78818e+01 -4.84012e+01 -9.72680e+01
       H  5.63341e+01 -4.80970e+01 -9.62710e+01
       H  5.88774e+01 -4.69284e+01 -9.69847e+01
       O  6.64822e+01  1.45174e+02  4.03670e+01
       H  6.48383e+01  1.44478e+02  4.00743e+01
       H  6.71483e+01  1.45023e+02  3.85946e+01
       O -2.66635e+01  1.28448e+01  3.29421e+00
       H -2.69972e+01  1.32971e+01  1.53071e+00
       H -2.79883e+01  1.17538e+01  3.85080e+00
       O  8.28183e+00 -2.66594e+01  1.46835e+01
       H  6.58647e+00 -2.68608e+01  1.45473e+01
       H  8.81777e+00 -2.70790e+01  1.29924e+01
       O  5.24163e+00  2.38358e+01  7.47815e+01
       H  6.53394e+00  2.30679e+01  7.57863e+01
       H  4.29790e+00  2.24698e+01  7.41439e+01
       O  7.56952e+01 -3.40763e+01  8.25630e+01
       H  7.49288e+01 -3.36104e+01  8.41940e+01
       H  7.43792e+01 -3.36772e+01  8.14034e+01
       O -4.14084e+01 -1.11077e+02 -4.28984e+01
       H -4.30082e+01 -1.10817e+02 -4.36605e+01
       H -4.12957e+01 -1.10218e+02 -4.12490e+01
       O -1.09339e+02  7.85183e+01  1.26928e+01
       H -1.10790e+02  7.78656e+01  1.36398e+01
       H -1.07916e+02  7.76832e+01  1.34367e+01
       O -1.17607e+02  8.11809e+01  6.51665e+01
       H -1.17714e+02  7.95885e+01  6.43560e+01
       H -1.16290e+02  8.19768e+01  6.43353e+01
       O  1.91311e+01 -5.22778e+01 -4.03045e+01
       H  1.99414e+01 -5.10994e+01 -4.14626e+01
       H  2.02997e+01 -5.29244e+01 -3.91718e+01
       O  9.56767e+01 -5.31650e+01  1.08493e+01
       H  9.61568e+01 -5.47047e+01  1.00098e+01
       H  9.66648e+01 -5.18164e+01  1.03103e+01
       O  8.60160e+00 -7.90024e+00  5.34401e+01
       H  1.03065e+01 -8.40906e+00  5.30359e+01
       H  7.51708e+00 -8.91783e+00  5.22665e+01
       O -6.53773e+01 -3.70258e+01 -5.22282e+01
       H -6.59644e+01 -3.53551e+01 -5.23677e+01
       H -6.56755e+01 -3.76845e+01 -5.05651e+01
       O  1.48632e+01 -4.43974e+01 -4.58514e+01
       H  1.31660e+01 -4.37535e+01 -4.55846e+01
       H  1.50827e+01 -4.59250e+01 -4.47843e+01
       O -2.49503e+01  9.10169e+01 -8.04553e+01
       H -2.65589e+01  9.05519e+01 -8.01007e+01
       H -2.50491e+01  9.13875e+01 -8.22210e+01
       O  7.42369e+01  1.04007e+01  2.63582e+01
       H  7.42177e+01  1.01276e+01  2.45167e+01
       H  7.26303e+01  1.09890e+01  2.68590e+01
       O  1.02838e+02  4.28491e+01  9.59392e+00
       H  1.01955e+02  4.13460e+01  1.00134e+01
       H  1.04066e+02  4.22700e+01  8.40111e+00
       O -2.39542e+01  4.03877e+01  6.78118e+00
       H -2.35445e+01  4.16298e+01  5.52651e+00
       H -2.50195e+01  3.93522e+01  5.77205e+00
       O -7.44014e+00  4.02885e+00  8.35630e+01
       H -7.77835e+00  4.37603e+00  8.53432e+01
       H -6.70725e+00  5.57518e+00  8.27163e+01
       O  1.34703e+01  6.82280e+01 -5.02799e+01
       H  1.27876e+01  6.98941e+01 -5.01589e+01
       H  1.45105e+01  6.77659e+01 -4.88422e+01
       O  1.25676e+02 -4.30050e+01  4.46888e+01
       H  1.24665e+02 -4.16303e+01  4.42254e+01
       H  1.24638e+02 -4.45046e+01  4.45700e+01
       O -6.09836e+01  4.77555e+01  3.43216e+01
       H -6.14828e+01  4.68652e+01  3.29038e+01
       H -6.12139e+01  4.94372e+01  3.38499e+01
       O  3.51149e+01 -1.06372e+01  1.71973e+01
       H  3.41173e+01 -1.18383e+01  1.79763e+01
       H  3.48249e+01 -9.08640e+00  1.81059e+01
       O -2.46347e+01 -1.85733e+01  2.74317e+01
       H -2.32710e+01 -1.94542e+01  2.80669e+01
       H -2.37018e+01 -1.72379e+01  2.66182e+01
       O  2.23870e+01  5.56131e+00  6.78552e+01
       H  2.37272e+01  5.15441e+00  6.67008e+01
       H  2.17284e+01  3.90673e+00  6.82837e+01
       O  1.03908e+02 -4.50836e+01 -8.71947e+00
       H  1.03430e+02 -4.49076e+01 -7.03021e+00
       H  1.03773e+02 -4.68177e+01 -9.24135e+00
       O -2.97516e+01 -6.44180e+01  4.54985e+00
       H -2.84755e+01 -6.57812e+01  4.60972e+00
       H -3.12785e+01 -6.51595e+01  3.70117e+00
       O -8.16065e+01  4.23194e+01  6.15384e+01
       H -8.04227e+01  4.20159e+01  6.28467e+01
       H -8.21529e+01  4.40216e+01  6.18082e+01
       O  1.27917e+01 -3.73866e+01  4.29413e+00
       H  1.12237e+01 -3.77924e+01  4.88871e+00
       H  1.38878e+01 -3.75817e+01  5.68149e+00
       O -6.24983e+01  7.02332e+01  5.25628e+00
       H -6.28388e+01  6.84857e+01  5.07520e+00
       H -6.07968e+01  7.04090e+01  4.53983e+00
       O  7.49611e-01  5.78095e+01 -2.56765e+00
       H -2.48536e-01  5.63201e+01 -2.95934e+00
       H  1.69361e+00  5.82231e+01 -4.04850e+00
       O -7.03706e+01 -5.24610e+01 -4.54545e+01
       H -7.19515e+01 -5.23376e+01 -4.63684e+01
       H -6.96636e+01 -5.42052e+01 -4.56451e+01
       O  4.21610e+01 -3.61657e+01 -1.08171e+01
       H  4.17040e+01 -3.77600e+01 -1.15750e+01
       H  4.13430e+01 -3.49507e+01 -1.18669e+01
       O  1.97428e+01  4.81491e+01  3.53341e+01
       H  1.90244e+01  4.68478e+01  3.44397e+01
       H  1.87767e+01  4.97225e+01  3.50082e+01
       O -3.66719e+01  8.35172e+01  8.44396e+01
       H -3.67410e+01  8.42017e+01  8.61375e+01
       H -3.63700e+01  8.17855e+01  8.46746e+01
       O -2.64079e+01  1.39773e+02  9.56054e+01
       H -2.62972e+01  1.41033e+02  9.42575e+01
       H -2.67458e+01  1.38147e+02  9.48870e+01
       O  3.37818e+01  5.42914e+00  4.93871e+01
       H  3.34631e+01  6.69172e+00  5.06694e+01
       H  3.23834e+01  5.43701e+00  4.81498e+01
       O  5.02868e+01  1.59668e+00 -4.24346e+01
       H  5.14712e+01  1.15579e+00 -4.36377e+01
       H  5.08991e+01  8.29467e-01 -4.09247e+01
       O  1.94631e+02 -9.36183e+00  1.56933e+01
       H  1.93471e+02 -7.86023e+00  1.54853e+01
       H  1.93341e+02 -1.04816e+01  1.63367e+01
       O -3.42974e+01 -8.07919e+00 -1.95295e+01
       H -3.34633e+01 -8.07912e+00 -1.78680e+01
       H -3.41379e+01 -9.82024e+00 -2.01300e+01
       O  1.46392e+01 -5.77581e+01 -3.84021e+01
       H  1.47976e+01 -5.62969e+01 -3.73427e+01
       H  1.34625e+01 -5.88850e+01 -3.74402e+01
       O  4.10257e+01 -2.88131e+01  7.37237e+01
       H  4.04716e+01 -3.03739e+01  7.44441e+01
       H  4.27235e+01 -2.90721e+01  7.28947e+01
       O  1.90161e+01 -6.42245e+01  9.64880e+00
       H  1.91752e+01 -6.37358e+01  7.91045e+00
       H  2.06534e+01 -6.46613e+01  1.00075e+01
       O -4.42849e+01 -5.72020e+01 -7.07859e+01
       H -4.44578e+01 -5.68834e+01 -7.25579e+01
       H -4.49098e+01 -5.88248e+01 -7.05246e+01
       O  3.07803e+00  2.24532e+01  1.59698e+01
       H  2.47700e+00  2.39963e+01  1.67320e+01
       H  1.74055e+00  2.12391e+01  1.62193e+01
       O -6.55832e+01  3.41412e+01  5.91578e+01
       H -6.68106e+01  3.54993e+01  5.92729e+01
       H -6.40122e+01  3.47680e+01  5.97157e+01
       O -5.69106e+01  7.10188e+01  2.91409e+01
       H -5.62247e+01  6.99575e+01  2.78309e+01
       H -5.61185e+01  7.00016e+01  3.04950e+01
       O -5.08103e+01 -7.03196e-01  4.84861e+00
       H -4.93793e+01  4.70683e-01  5.09890e+00
       H -5.18791e+01 -6.42084e-02  3.46259e+00
       O -2.97916e+00 -5.08170e-01  4.41693e+01
       H -3.59759e+00  3.93504e-01  4.56066e+01
       H -3.91966e+00  4.86592e-02  4.26061e+01
       O  3.78693e+01  4.86802e+00  1.66076e+02
       H  3.83159e+01  3.60724e+00  1.67446e+02
       H  3.67012e+01  5.87604e+00  1.67018e+02
       O  4.61344e+00 -3.19361e+01  4.40518e+01
       H  5.87943e+00 -3.08288e+01  4.34846e+01
       H  3.71024e+00 -3.24198e+01  4.24787e+01
       O -5.20718e+01  2.24796e+00 -9.55325e+01
       H -5.35919e+01  3.14302e+00 -9.57945e+01
       H -5.10805e+01  3.42453e+00 -9.46386e+01
       O  2.71531e+00  7.29417e+01  1.17483e+02
       H  3.93880e+00  7.16012e+01  1.17424e+02
       H  1.04617e+00  7.23211e+01  1.17513e+02
       O  9.37479e+00 -6.78515e+01  3.22889e+01
       H  8.28332e+00 -6.67034e+01  3.13807e+01
       H  1.00296e+01 -6.69096e+01  3.38007e+01
       O -1.45234e+01  4.19886e+01  9.12868e+01
       H -1.42736e+01  4.29814e+01  8.98472e+01
       H -1.38542e+01  4.27398e+01  9.27666e+01
       O  8.84295e+01  6.51329e+01 -2.98216e+01
       H  8.70992e+01  6.38645e+01 -3.02171e+01
       H  8.75246e+01  6.64761e+01 -2.91667e+01
       O  4.99979e+01 -4.43624e+01  6.34482e+01
       H  4.88901e+01 -4.39159e+01  6.20247e+01
       H  5.16640e+01 -4.47342e+01  6.27596e+01
       O -9.79448e-01  2.87843e+01  5.94168e+01
       H  5.03542e-01  2.91069e+01  5.84268e+01
       H -1.41201e+00  2.72545e+01  5.87788e+01
       O  1.96736e+02  2.94340e+01 -1.44425e+01
       H  1.97947e+02  2.83335e+01 -1.49876e+01
       H  1.97552e+02  3.07224e+01 -1.36173e+01
       O -6.79643e+01  7.14563e+01 -3.77897e+01
       H -6.70660e+01  6.99945e+01 -3.82296e+01
       H -6.85524e+01  7.11414e+01 -3.61124e+01
       O -5.90192e+01 -7.33610e-01 -9.28190e+00
       H -6.03285e+01 -3.45068e-01 -8.24489e+00
       H -5.97044e+01 -3.73193e-01 -1.09249e+01
