4
# CELL(abcABC):    6.57000     6.57000     6.57000    90.00000    90.00000    90.00000  positions{atomic_unit}  cell{atomic_unit}
      Li  0.00000e+00  0.00000e+00  0.00000e+00
      Li  3.28000e+00  3.28000e+00  1.00000e-03
      Li  1.00000e-03  3.28100e+00  3.28000e+00
      Li  3.28100e+00  0.00000e+00  3.28100e+00
