3
# CELL(abcABC):  80.  80.  80.  90.  90.  90.  Step:  1991  Bead:  4 positions{angstrom}  cell{angstrom}
O  1.19824e+01  2.81177e+01  2.24776e+01
H  1.24180e+01  2.73465e+01  2.28078e+01
H  1.25552e+01  2.88305e+01  2.26704e+01
3
# CELL(abcABC):  80.  80.  80.  90.  90.  90.  Step:  1992  Bead:  4 positions{angstrom}  cell{angstrom}
O  1.19833e+01  2.81196e+01  2.24784e+01
H  1.24231e+01  2.73399e+01  2.27883e+01
H  1.25608e+01  2.88346e+01  2.26790e+01
3
# CELL(abcABC):  80.  80.  80.  90.  90.  90.  Step:  1993  Bead:  4 positions{angstrom}  cell{angstrom}
O  1.19841e+01  2.81223e+01  2.24781e+01
H  1.24256e+01  2.73326e+01  2.27674e+01
H  1.25660e+01  2.88390e+01  2.26880e+01
3
# CELL(abcABC):  80.  80.  80.  90.  90.  90.  Step:  1994  Bead:  4 positions{angstrom}  cell{angstrom}
O  1.19848e+01  2.81258e+01  2.24766e+01
H  1.24256e+01  2.73247e+01  2.27450e+01
H  1.25704e+01  2.88426e+01  2.26971e+01
3
# CELL(abcABC):  80.  80.  80.  90.  90.  90.  Step:  1995  Bead:  4 positions{angstrom}  cell{angstrom}
O  1.19855e+01  2.81301e+01  2.24741e+01
H  1.24235e+01  2.73167e+01  2.27214e+01
H  1.25740e+01  2.88447e+01  2.27062e+01
3
# CELL(abcABC):  80.  80.  80.  90.  90.  90.  Step:  1996  Bead:  4 positions{angstrom}  cell{angstrom}
O  1.19860e+01  2.81352e+01  2.24705e+01
H  1.24195e+01  2.73091e+01  2.26965e+01
H  1.25770e+01  2.88446e+01  2.27152e+01
3
# CELL(abcABC):  80.  80.  80.  90.  90.  90.  Step:  1997  Bead:  4 positions{angstrom}  cell{angstrom}
O  1.19863e+01  2.81409e+01  2.24661e+01
H  1.24138e+01  2.73026e+01  2.26705e+01
H  1.25798e+01  2.88422e+01  2.27240e+01
3
# CELL(abcABC):  80.  80.  80.  90.  90.  90.  Step:  1998  Bead:  4 positions{angstrom}  cell{angstrom}
O  1.19865e+01  2.81472e+01  2.24611e+01
H  1.24068e+01  2.72979e+01  2.26437e+01
H  1.25828e+01  2.88373e+01  2.27327e+01
3
# CELL(abcABC):  80.  80.  80.  90.  90.  90.  Step:  1999  Bead:  4 positions{angstrom}  cell{angstrom}
O  1.19865e+01  2.81538e+01  2.24556e+01
H  1.23986e+01  2.72960e+01  2.26163e+01
H  1.25866e+01  2.88303e+01  2.27414e+01
3
# CELL(abcABC):  80.  80.  80.  90.  90.  90.  Step:  2000  Bead:  4 positions{angstrom}  cell{angstrom}
O  1.19863e+01  2.81607e+01  2.24499e+01
H  1.23894e+01  2.72972e+01  2.25885e+01
H  1.25917e+01  2.88214e+01  2.27501e+01
