384
# CELL(abcABC):   29.55607    29.55607    29.55607    90.00000    90.00000    90.00000  Step:           0  Bead:       0 positions{atomic_unit}  cell{atomic_unit}
       O  6.68390e+01  4.67490e+01 -5.08479e+01
       H  6.81188e+01  4.71578e+01 -5.21586e+01
       H  6.68413e+01  4.47944e+01 -5.06268e+01
       O  2.59569e+01  3.14281e+01  3.23852e+00
       H  2.62692e+01  3.21174e+01  5.13456e+00
       H  2.45334e+01  3.01594e+01  3.16466e+00
       O  9.35166e+00 -7.95702e+01 -8.61083e+01
       H  1.02624e+01 -8.06085e+01 -8.47608e+01
       H  7.53525e+00 -7.92654e+01 -8.54242e+01
       O  7.40224e+01 -2.30860e+01 -2.24499e+00
       H  7.43401e+01 -2.40618e+01 -6.09869e-01
       H  7.21840e+01 -2.27517e+01 -2.28954e+00
       O -3.07137e+01 -6.08474e+01 -2.87648e+01
       H -3.13187e+01 -5.93074e+01 -2.78899e+01
       H -3.02154e+01 -6.22336e+01 -2.75435e+01
       O -4.82856e+00  1.63711e+01 -7.19566e+01
       H -4.92663e+00  1.53380e+01 -7.02225e+01
       H -4.31724e+00  1.79438e+01 -7.12911e+01
       O  9.01981e+00 -1.92381e+01 -3.47680e+01
       H  9.79478e+00 -1.75438e+01 -3.49335e+01
       H  9.14927e+00 -2.00830e+01 -3.64481e+01
       O  2.01478e+00 -4.23071e+01 -1.86580e+01
       H  2.70452e+00 -4.02991e+01 -1.90635e+01
       H  2.47653e+00 -4.27324e+01 -1.68846e+01
       O  1.56685e+01  1.25326e+01 -3.73884e+01
       H  1.77145e+01  1.18537e+01 -3.73623e+01
       H  8.23141e-01 -9.47471e-01 -7.66863e+01
       O  4.22487e+01  8.56298e+00 -6.87596e+01
       H  4.29495e+01  1.02129e+01 -6.85328e+01
       H  4.33444e+01  7.29095e+00 -6.75109e+01
       O  4.96544e+00 -4.47063e+01 -4.54850e+00
       H  5.37636e+00 -4.62143e+01 -5.30893e+00
       H  6.20798e+00 -4.40001e+01 -3.31952e+00
       O  5.68660e+01 -2.50491e+01 -9.16781e-01
       H  5.65076e+01 -2.60021e+01  8.34117e-01
       H  5.80377e+01 -2.60285e+01 -2.02483e+00
       O -2.47964e+01  1.27526e+01 -5.61450e+01
       H -2.54531e+01  1.14445e+01 -5.69909e+01
       H -2.62924e+01  1.36398e+01 -5.52721e+01
       O  4.16595e+01 -9.91278e+00 -3.69784e+00
       H  4.26604e+01 -9.44983e+00 -2.26600e+00
       H  4.11891e+01 -8.42324e+00 -4.59750e+00
       O -4.33273e+00  9.30336e+01 -4.00501e+01
       H -2.37653e+00  9.34243e+01 -4.03552e+01
       H -4.91449e+00  9.46908e+01 -3.95199e+01
       O  7.76708e+01 -2.65979e+01  1.44089e+01
       H  7.73030e+01 -2.51797e+01  1.30070e+01
       H  7.92626e+01 -2.62264e+01  1.46593e+01
       O -2.75277e+01  1.36297e+01 -1.01862e+01
       H -2.84319e+01  1.19918e+01 -1.07354e+01
       H -2.88821e+01  1.40877e+01 -8.83789e+00
       O  4.06345e+01  1.67521e+01 -1.17998e+01
       H  3.90960e+01  1.60473e+01 -1.27659e+01
       H  4.22709e+01  1.64167e+01 -1.24577e+01
       O  1.74021e+01  2.20479e+01  4.96248e+00
       H  1.25462e+01  1.30309e+01 -7.70331e-02
       H  1.87468e+01  2.30216e+01  4.43269e+00
       O  3.37551e+01 -8.44693e+00  9.25172e+00
       H  3.38289e+01 -6.77981e+00  1.00272e+01
       H  3.54800e+01 -9.21411e+00  9.02300e+00
       O  6.71413e+01  2.17194e+01 -5.96318e+01
       H  6.73282e+01  2.21127e+01 -6.12335e+01
       H  6.75770e+01  1.96209e+01 -6.00591e+01
       O -5.10367e+00 -5.03611e+01  2.23942e+01
       H -4.71154e+00 -4.95448e+01  2.40719e+01
       H -7.35231e+00 -5.00398e+01  2.20866e+01
       O  8.53343e+01  1.39995e+01 -7.79533e+00
       H  8.57667e+01  1.86113e+01 -2.93292e+00
       H  8.42572e+01  1.27437e+01 -7.62880e+00
       O  5.50423e+01 -4.79163e+01 -2.74567e+00
       H  5.68997e+01 -4.71348e+01 -2.32111e+00
       H  5.35072e+01 -4.70537e+01 -1.72475e+00
       O  2.44080e+00 -2.38686e+00 -7.43601e+00
       H  2.39606e+00 -1.34112e+00 -8.63688e+00
       H  2.01052e+00 -3.82804e+00 -8.28850e+00
       O  1.17451e+01  6.59315e+01  6.72640e+00
       H  1.02513e+01  6.69620e+01  7.47028e+00
       H  1.25006e+01  6.53627e+01  8.40740e+00
       O  6.24077e+01  4.70784e+01 -1.32477e+01
       H  6.13014e+01  4.89022e+01 -1.34266e+01
       H  6.15632e+01  4.57019e+01 -1.23229e+01
       O  6.66197e-01 -5.40728e+01  1.93514e+01
       H  1.25233e+00 -5.35045e+01  2.08367e+01
       H  1.07207e+00 -5.27925e+01  1.80269e+01
       O  2.16653e+01  5.81210e+01  4.48223e+00
       H  2.13518e+01  5.85145e+01  6.11863e+00
       H  2.14522e+01  5.60870e+01  4.40552e+00
       O  1.00883e+00  1.50258e+01 -2.36682e+01
       H  1.98412e+00  1.58257e+01 -2.21737e+01
       H  4.69997e-01  1.65949e+01 -2.46474e+01
       O  4.76485e+01 -4.89761e+00 -3.35471e+01
       H  4.90887e+01 -6.01492e+00 -3.39633e+01
       H  4.65505e+01 -5.66009e+00 -3.53394e+01
       O -7.89488e+00 -1.58289e+01  6.84298e+01
       H -6.15478e+00 -1.55056e+01  6.81472e+01
       H -8.73027e+00 -1.44784e+01  6.75190e+01
       O  3.10012e+01 -7.59849e+00  2.69965e+01
       H  3.22378e+01 -6.57888e+00  2.79974e+01
       H  3.17841e+01 -6.88663e+00  2.51620e+01
       O  2.98389e+01  6.31109e+01  9.35398e+00
       H  3.14436e+01  6.31079e+01  8.27237e+00
       H  3.01615e+01  6.14753e+01  1.03496e+01
       O  4.02624e+01  2.69429e+01 -2.19011e+01
       H  3.93426e+01  2.62821e+01 -2.31726e+01
       H  4.06080e+01  2.87929e+01 -2.21367e+01
       O  8.08595e+00 -1.30604e+01 -3.02666e+01
       H  7.34707e+00 -1.38292e+01 -2.86410e+01
       H  9.59738e+00 -1.36568e+01 -3.04525e+01
       O  3.29144e+01 -9.63263e+00 -2.69848e+01
       H  3.43386e+01 -9.14680e+00 -2.84727e+01
       H  3.35104e+01 -1.12052e+01 -2.59173e+01
       O  2.80719e+00  2.19191e+01  2.23237e+01
       H  1.31521e+00  2.06681e+01  2.16118e+01
       H  4.39774e+00  2.07031e+01  2.23344e+01
       O -5.03627e+01  5.54423e+01  4.19148e+01
       H -4.85962e+01  5.50618e+01  4.26518e+01
       H -5.01841e+01  5.56946e+01  3.97984e+01
       O  8.94111e+00 -5.55889e+00  2.42493e+01
       H  8.97221e+00 -3.61848e+00  2.37849e+01
       H  8.18684e+00 -6.28800e+00  2.26716e+01
       O  8.34363e+01 -3.39963e+01 -9.18169e+00
       H  8.27694e+01 -3.22822e+01 -8.52278e+00
       H  8.47242e+01 -3.35856e+01 -1.05472e+01
       O  8.05760e+01 -2.05208e+01  7.08477e+00
       H  8.06934e+01 -1.88889e+01  7.80595e+00
       H  8.23196e+01 -2.13119e+01  7.16830e+00
       O  6.62262e+01  2.40943e+01 -4.01784e+01
       H  6.65519e+01  2.55003e+01 -4.12197e+01
       H  6.45470e+01  2.35329e+01 -4.10052e+01
       O -3.09291e-01 -2.95700e+01  1.29792e+01
       H  1.62393e+01 -1.50403e+01  3.49521e+01
       H  3.94447e-01 -2.97064e+01  1.45247e+01
       O  1.20004e+01  1.85145e+01 -1.80145e+01
       H  1.22109e+01  1.67375e+01 -1.74597e+01
       H  1.02581e+01  1.88368e+01 -1.87847e+01
       O  1.59913e+01  5.85101e+01 -3.21369e+00
       H  1.74175e+01  5.74565e+01 -3.44608e+00
       H  1.61333e+01  5.98676e+01 -4.10263e+00
       O  4.04314e+01 -1.47476e+01  5.27355e+01
       H  4.00835e+01 -1.42322e+01  5.11587e+01
       H  4.12250e+01 -1.34369e+01  5.39084e+01
       O  1.77436e+01  1.29168e+00 -8.69732e+00
       H  1.89886e+01  2.42294e-02 -8.37378e+00
       H  1.62501e+01  3.73254e-01 -9.01775e+00
       O  5.22153e+01 -6.93092e+00  2.48756e+01
       H  5.32173e+01 -6.44074e+00  2.63669e+01
       H  5.30100e+01 -5.91357e+00  2.35308e+01
       O  8.41149e+01  3.47710e+01  8.12923e+00
       H  8.57381e+01  3.42964e+01  9.23184e+00
       H  8.27033e+01  3.34276e+01  8.54118e+00
       O  1.57991e+01 -5.83198e+00 -3.84120e+01
       H  1.69159e+01 -6.77926e+00 -3.97020e+01
       H  1.41610e+01 -6.40261e+00 -3.84554e+01
       O -2.79192e+01 -6.58925e+01 -1.39978e+01
       H -2.69076e+01 -6.53007e+01 -1.54946e+01
       H -2.99395e+01 -6.58407e+01 -1.43620e+01
       O  7.56470e+01 -5.32525e+01  2.28636e+01
       H  7.52574e+01 -5.32916e+01  2.46902e+01
       H  7.64146e+01 -5.48026e+01  2.22022e+01
       O  2.00180e+01  1.63556e+01  5.29487e+01
       H  2.04781e+01  1.82100e+01  5.26930e+01
       H  2.05359e+01  1.57115e+01  5.15011e+01
       O  3.08617e+01 -5.27695e+00  4.44545e+00
       H  2.97278e+01 -5.96746e+00  5.68494e+00
       H  3.16778e+01 -6.84449e+00  4.13296e+00
       O  6.64037e+01  1.41832e+01  4.45013e+01
       H  6.69786e+01  1.38660e+01  4.26693e+01
       H  6.55207e+01  1.57293e+01  4.45337e+01
       O  4.64889e+00  4.95360e+00  2.70644e+01
       H  4.85275e+00  3.24751e+00  2.68638e+01
       H  6.59791e+00  5.25917e+00  2.70462e+01
       O  2.64763e+01  1.86621e+01  5.06865e+00
       H  2.49783e+01  1.74733e+01  4.84706e+00
       H  2.73869e+01  1.91146e+01  3.47821e+00
       O  1.35226e+01  2.46413e+01  1.36355e+01
       H  1.39581e+01  2.39513e+01  1.18274e+01
       H  1.40600e+01  2.32182e+01  1.46408e+01
       O -9.01008e+00  1.46806e+01  1.44150e+01
       H -9.39218e+00  1.44771e+01  1.26552e+01
       H -7.27447e+00  1.52151e+01  1.48748e+01
       O  3.14595e+01 -2.90803e+01 -3.26946e+00
       H  3.01322e+01 -3.01424e+01 -2.28776e+00
       H  3.14082e+01 -3.02112e+01 -4.83872e+00
       O  3.72217e+00  5.57061e+01 -1.83988e+01
       H  5.12710e+00  5.60842e+01 -1.73596e+01
       H  4.30435e+00  5.63147e+01 -2.00604e+01
       O  4.64321e+01  2.77782e+00  1.43942e+00
       H  4.80257e+01  3.56995e+00  1.85096e+00
       H  4.70128e+01  1.66236e+00  6.64998e-02
       O  8.90757e+01 -2.11284e+01  3.09632e+01
       H  8.75368e+01 -2.09052e+01  3.16186e+01
       H  8.82691e+01 -2.21860e+01  2.96709e+01
       O -1.32451e+00 -7.06492e+01 -2.92711e+01
       H  8.01433e-02 -6.91039e+01 -2.93960e+01
       H -1.43151e-01 -7.19882e+01 -2.94729e+01
       O  5.07899e+01 -9.86845e+00  5.86688e+01
       H  5.06016e+01 -8.12174e+00  5.83989e+01
       H  4.89459e+01 -1.03692e+01  5.90780e+01
       O  1.20018e+01  5.75591e+01  1.99858e+01
       H  1.33748e+01  5.64247e+01  2.06666e+01
       H  1.24477e+01  5.76341e+01  1.79658e+01
       O  2.23806e+00  7.85288e+00  2.39705e+01
       H  3.21751e+00  6.51551e+00  2.50064e+01
       H  5.37415e-01  7.99739e+00  2.45313e+01
       O -2.70343e+01  2.98446e+01 -1.21997e+01
       H -2.55841e+01  2.99176e+01 -1.33715e+01
       H -2.71697e+01  3.20447e+01 -1.20752e+01
       O  1.13203e+02  9.13776e+00 -1.67565e+01
       H  1.14008e+02  1.02374e+01 -1.77791e+01
       H  1.13184e+02  7.54449e+00 -1.68365e+01
       O -1.88070e+01  1.19777e+02  2.79943e+00
       H -1.69542e+01  1.20534e+02  3.35709e+00
       H -1.81224e+01  1.18297e+02  2.21089e+00
       O -1.01315e+01  9.25320e+00  2.09905e+01
       H -1.12191e+01  7.38161e+00  2.14320e+01
       H -9.81003e+00  9.33746e+00  1.92552e+01
       O -9.27101e-01  2.20521e+01 -5.05842e+01
       H -1.86169e+00  2.06739e+01 -5.14037e+01
       H -1.01988e-03  2.10353e+01 -4.95677e+01
       O  2.26844e+01  2.36022e-01  5.15113e+01
       H  2.37473e+01  1.56951e+00  5.12307e+01
       H  2.24054e+01  4.89941e-01  5.35010e+01
       O -3.68517e+00  1.81465e+01  5.45029e+01
       H -5.41475e+00  1.86309e+01  5.53056e+01
       H -1.32409e+01  2.19887e+01  6.23368e+01
       O  7.50612e+01 -1.34128e+01  1.79007e+01
       H  7.47776e+01 -1.42739e+01  1.96920e+01
       H  7.67793e+01 -1.44252e+01  1.70868e+01
       O  5.48921e+01 -4.94818e+01  3.01943e+00
       H  5.43271e+01 -5.02309e+01  1.31452e+00
       H  5.34498e+01 -4.96517e+01  3.67422e+00
       O -1.86894e+01 -2.63257e+01  4.52982e+01
       H -1.99613e+01 -2.49918e+01  4.62093e+01
       H -1.68315e+01 -2.66683e+01  4.57203e+01
       O  5.99681e+01 -1.65996e+01 -1.58427e+00
       H  6.00732e+01 -1.83393e+01 -8.36960e-01
       H  6.06517e+01 -1.68742e+01 -3.23803e+00
       O -2.25069e+01  1.19311e+01 -2.23255e+01
       H -2.33227e+01  1.16553e+01 -2.40245e+01
       H -1.38514e+01  1.31651e+01 -5.92452e+00
       O  7.69125e+01  4.52954e+01 -5.37480e+01
       H  7.64457e+01  4.69320e+01 -5.40436e+01
       H  6.34295e+01  6.04960e+01 -8.41680e+01
       O  4.68988e+01  1.94098e+01  1.07621e+01
       H  4.69143e+01  2.01336e+01  8.75575e+00
       H  3.52889e+01  1.18258e+01  3.78795e+01
       O  1.83966e+01  5.62408e+00  9.59425e+00
       H  1.90005e+01  7.05680e+00  8.83928e+00
       H  1.67577e+01  5.90940e+00  9.90900e+00
       O  7.65927e+01  2.11135e+01  1.62151e+01
       H  7.65408e+01  2.14719e+01  1.42432e+01
       H  7.57827e+01  1.90336e+01  1.60789e+01
       O  5.56297e+01 -6.15707e+00 -1.00043e+00
       H  5.63970e+01 -4.38383e+00 -2.94302e-01
       H  5.71175e+01 -6.85765e+00 -1.76587e+00
       O  6.75211e+00  1.10419e+01 -6.95071e+01
       H  7.82928e+00  1.21635e+01 -7.05946e+01
       H  5.26822e+00  1.20290e+01 -6.92742e+01
       O  4.13830e+01  1.74637e+01  3.43318e+01
       H  4.11798e+01  1.61198e+01  3.31336e+01
       H  4.11400e+01  1.87138e+01  3.28198e+01
       O  3.73317e+01 -2.99968e+01  2.27035e+01
       H  3.62699e+01 -3.06635e+01  2.15368e+01
       H  3.90125e+01 -3.03671e+01  2.15070e+01
       O  1.03891e+02 -8.98975e-01 -1.34446e+01
       H  1.03872e+02 -2.48308e+00 -1.41632e+01
       H  1.05235e+02  2.84324e-01 -1.39681e+01
       O  3.45598e+01  2.71456e+01  3.62946e+01
       H  3.59694e+01  2.61684e+01  3.52977e+01
       H  3.31327e+01  2.62291e+01  3.57574e+01
       O  4.97812e+01  3.82156e+01 -6.99017e-01
       H  4.94134e+01  3.70340e+01  5.69708e-01
       H  5.09071e+01  3.71298e+01 -2.27355e+00
       O  3.75875e+01  8.41048e+01  3.75049e+00
       H  3.68405e+01  8.58414e+01  2.79156e+00
       H  3.77411e+01  8.26202e+01  2.78156e+00
       O  3.52990e+01  6.10050e+01  3.46381e+00
       H  4.50101e+01  4.83553e+01  1.05048e+01
       H  3.68970e+01  6.10882e+01  3.94889e+00
       O  2.30153e+01 -3.54758e+01 -2.64774e+01
       H  2.43823e+01 -3.50083e+01 -2.78111e+01
       H  2.40777e+01 -3.68554e+01 -2.64780e+01
       O  3.67946e+01 -9.77059e-01  1.59152e+01
       H  3.76699e+01 -2.45195e+00  1.39542e+01
       H  3.75705e+01  4.54820e-01  1.52827e+01
       O  3.92686e+01  8.94351e+00  1.39039e+01
       H  3.97613e+01  8.23015e+00  1.55658e+01
       H  4.04243e+01  1.03133e+01  1.36966e+01
       O  7.22446e+01  5.71496e+00  4.10653e+01
       H  7.19252e+01  3.91359e+00  4.17638e+01
       H  7.11525e+01  7.06069e+00  4.17838e+01
       O  2.09874e+01  1.39082e+01  2.76725e+01
       H  2.05018e+01  1.47126e+01  2.58145e+01
       H  2.00871e+01  1.23431e+01  2.74148e+01
       O  7.16558e+01 -1.59868e+01 -1.66736e+01
       H  7.17420e+01 -1.57604e+01 -1.86185e+01
       H  7.33568e+01 -1.68658e+01 -1.61359e+01
       O  7.42433e+01  1.71980e+00  7.05660e+00
       H  7.55919e+01  7.35119e-01  6.13886e+00
       H  7.41859e+01  3.75303e+00  6.79109e+00
       O  4.22062e+01  1.21119e+01 -5.16935e+01
       H  4.05115e+01  1.20810e+01 -5.16365e+01
       H  4.28645e+01  1.04552e+01 -5.22149e+01
       O  6.78430e+00 -3.10002e+01  2.90364e+01
       H  7.47762e+00 -2.90785e+01  2.89816e+01
       H  5.02607e+00 -3.09756e+01  2.81068e+01
       O  5.79249e+01  1.95214e+01 -3.84362e+01
       H  5.74084e+01  2.12345e+01 -3.92510e+01
       H  5.65486e+01  1.93115e+01 -3.69925e+01
       O  5.94027e+01  6.92832e+01 -4.30150e+01
       H  5.78778e+01  6.97533e+01 -4.41200e+01
       H  6.06777e+01  6.83405e+01 -4.39927e+01
       O  7.95911e+01  9.86328e+01 -1.34123e+01
       H  8.05590e+01  9.78417e+01 -1.45135e+01
       H  7.98880e+01  1.00526e+02 -1.40564e+01
       O -6.90349e+00  3.45081e+01 -3.89165e+00
       H -6.05857e+00  3.49211e+01 -5.28618e+00
       H -5.37473e+00  3.40807e+01 -2.74088e+00
       O  6.87731e+01  3.66615e+01  2.76308e+01
       H  6.86378e+01  3.74598e+01  2.93383e+01
       H  6.84566e+01  3.80057e+01  2.58114e+01
       O  4.40640e+01  2.29296e+01 -9.29003e-02
       H  4.51826e+01  2.37814e+01 -1.21680e+00
       H  4.26563e+01  2.40564e+01  5.30588e-02
       O  2.24575e+01 -8.88246e+00 -1.15907e+01
       H  2.09264e+01 -8.88228e+00 -1.27584e+01
       H  2.23349e+01 -7.05209e+00 -1.10346e+01
       O  4.11848e+01 -4.57813e+01  1.29099e+00
       H  4.14524e+01 -3.96416e+01 -1.10246e+01
       H  4.00726e+01 -4.74769e+01  1.84425e+00
       O  3.70534e+01 -5.39126e+01 -1.03756e+01
       H  3.73579e+01 -5.22023e+01 -9.79194e+00
       H  3.67372e+01 -5.48334e+01 -8.80738e+00
       O  4.14949e+01 -3.75867e+01  1.81979e+01
       H  5.56151e+01 -4.38093e+01  2.30171e+01
       H  3.99512e+01 -3.69526e+01  1.81895e+01
       O  8.18069e+01 -1.41668e+01  3.48133e+00
       H  7.98285e+01 -1.43463e+01  4.03581e+00
       H  8.21966e+01 -1.41771e+01  1.36885e+00
       O  5.59977e+01 -7.70851e+00  1.38984e+01
       H  5.60760e+01 -8.36950e+00  1.20806e+01
       H  5.52895e+01 -6.08643e+00  1.38264e+01
       O -3.30535e+00  4.54486e+01 -1.85816e+01
       H -1.47824e+00  4.54973e+01 -1.85748e+01
       H -3.80667e+00  4.62476e+01 -1.66996e+01
       O  5.64820e+01  1.10635e+01 -2.11610e+01
       H  5.63954e+01  1.06092e+01 -2.28726e+01
       H  5.66939e+01  1.26705e+01 -2.11104e+01
       O  9.15570e+01  9.55553e+00 -5.09362e+01
       H  8.96916e+01  9.77398e+00 -5.07539e+01
       H  9.18761e+01  8.06949e+00 -5.21654e+01
       O -7.92444e+00  3.06870e+01  9.32231e+00
       H -7.66069e+00  3.02028e+01  1.10339e+01
       H -9.35003e+00  3.18252e+01  9.50013e+00
       O  1.53360e+01 -6.37021e+01 -2.08581e+01
       H  1.37445e+01 -6.27222e+01 -2.12044e+01
       H  1.61867e+01 -6.50448e+01 -2.22264e+01
       O  8.34203e+01  2.62871e+00  1.33508e+01
       H  8.51407e+01  2.42807e+00  1.33492e+01
       H  8.31458e+01  3.09790e+00  1.51828e+01
       O  1.55107e+01  3.96726e+01 -1.40839e+01
       H  1.71366e+01  3.84203e+01 -1.44036e+01
       H  1.53895e+01  3.97939e+01 -1.21946e+01
       O  6.35258e+01  3.64157e+01 -5.54772e+01
       H  6.40934e+01  3.45601e+01 -5.63653e+01
       H  6.21289e+01  3.67394e+01 -5.65721e+01
       O  9.47980e+01 -1.11118e+01  2.08973e+01
       H  9.47279e+01 -1.23926e+01  2.23305e+01
       H  9.38293e+01 -1.15542e+01  1.95424e+01
       O  4.52374e+01  4.14458e+01 -3.19097e+01
       H  4.49839e+01  3.95575e+01 -3.15931e+01
       H  4.60287e+01  4.18293e+01 -3.01931e+01
       O  1.19729e+01  2.74102e+01 -2.48541e-01
       H  1.03624e+01  2.69206e+01 -9.71455e-01
       H  1.34009e+01  2.81689e+01 -1.24896e+00
       O  5.51823e+01 -3.19094e+01  4.55741e+01
       H  5.42409e+01 -3.01928e+01  4.58662e+01
       H  5.58817e+01 -3.15135e+01  4.38317e+01
       O  9.22566e+01 -2.23107e+01 -4.53403e+01
       H  9.39691e+01 -2.14920e+01 -4.51674e+01
       H  9.20017e+01 -2.27992e+01 -4.69776e+01
       O  5.05333e+01  5.08154e+00 -2.59427e+01
       H  4.99842e+01  6.64987e+00 -2.47458e+01
       H  5.23673e+01  4.54857e+00 -2.57274e+01
