6
# CELL(abcABC):  130.18034   170.29206   240.21758    90.00000    90.00000    90.00000  cell{atomic_unit}  Traj: positions{angstrom} Step:          12  Bead:       0 
H 1.3762859974402626 1.6475377505750781 1.3947309252535616  
C 0.5610492771673459 0.6910172235578630 0.5785825986233499  
H 0.0313332395759015 0.1474340996450444 1.3607366615876173  
H 1.3412729333952838 0.1418736998062487 0.0516893010969587  
H -0.0352236727959057 1.3786671745683925 -0.0209976311964991  
H 2.162629  2.651689  2.290930
