9
CELL(abcABC):  200.000000 200.000000 200.000000 90.000000 90.000000 90.000000 cell{atomic_unit}  Traj: positions{angstrom}   Bead:       0
C -4.565684865992397 1.8043985657547492 -0.2792541906229245
C -3.450814290346269 0.959502919674056 -0.4308983965444785
C -2.196576748413549 1.5270197532429264 -0.18908779998840194
H -3.5590217832151128 -0.08220951549037403 -0.7214432171720253
O -4.44147989404181 3.0346279110510785 0.0636907141910441
H -5.588709296951641 1.430259188173456 -0.4524371666071614
H -3.178493389877823 3.127414358804473 0.177190576126266
O -2.065549678369533 2.7669619549970728 0.1570110878944296
H -1.2688598812809608 0.9432811150743392 -0.28279077488569393
9
CELL(abcABC):  200.000000 200.000000 200.000000 90.000000 90.000000 90.000000 cell{atomic_unit}  Traj: positions{angstrom}   Bead:       1
C -4.565646895131361 1.8042702713087957 -0.27928635757990744
C -3.450892159578328 0.9595106511413519 -0.43090174472265635
C -2.196517459795082 1.5271382818920352 -0.1890514858948443
H -3.559083224184193 -0.08220251277416135 -0.7214455722972737
O -4.441393107435369 3.0346937193216754 0.06371465337567407
H -5.58871948549602 1.4303938849824405 -0.452401422260743
H -3.1803306014057586 3.1275272930236593 0.17709273505461376
O -2.0655286184253714 2.7668889948755435 0.15699275039985475
H -1.268894146871223 0.9431642284663281 -0.2828248127726443
9
CELL(abcABC):  200.000000 200.000000 200.000000 90.000000 90.000000 90.000000 cell{atomic_unit}  Traj: positions{angstrom}   Bead:       2
C -4.565572474811035 1.8040177463945108 -0.27934969482453653
C -3.4510454229383214 0.9595259722504955 -0.43090830683722275
C -2.196400551936738 1.5273714338279234 -0.18898003347326178
H -3.5592039200356482 -0.08218872378441995 -0.7214501953865599
O -4.441224963630087 3.0348232907520516 0.06376159721431632
H -5.588738953758551 1.4306587023823463 -0.4523311082369011
H -3.183957276429171 3.12776211236777 0.17690283109426447
O -2.0654838227408217 2.7667446848457455 0.15695669838637064
H -1.2689613084617233 0.9429329793365803 -0.2828921087597493
9
CELL(abcABC):  200.000000 200.000000 200.000000 90.000000 90.000000 90.000000 cell{atomic_unit}  Traj: positions{angstrom}   Bead:       3
C -4.56546461262252 1.8036492743362071 -0.2794421645972438
C -3.451268966915761 0.9595486185541426 -0.43091779757465126
C -2.1962295759759067 1.5277113023439841 -0.18887583455359738
H -3.5593797916609153 -0.08216864396194135 -0.7214569469768262
O -4.440985760729215 3.035012439297171 0.06382968934582944
H -5.588766789731383 1.43104342660544 -0.4522289252837497
H -3.1892739289599197 3.1281341660441875 0.1766320062901981
O -2.0654106183522556 2.7665324360706998 0.15690418240458157
H -1.2690593115142432 0.9425936459905094 -0.28299081927264647
9
CELL(abcABC):  200.000000 200.000000 200.000000 90.000000 90.000000 90.000000 cell{atomic_unit}  Traj: positions{angstrom}   Bead:       4
C -4.565327721609044 1.8031774596528447 -0.279560654448472
C -3.451555035415028 0.9595781269938022 -0.4309298008444684
C -2.1960099834882505 1.528145920671241 -0.18874251528775376
H -3.559604685828613 -0.08214300335467277 -0.7214656103901932
O -4.440690116928814 3.0352547667257115 0.06391617039672037
H -5.588801640233574 1.4315329725931398 -0.45209886080593054
H -3.196119035357299 3.1286603574848213 0.17629617234753042
O -2.0653036518430126 2.76625782376994 0.1568370875363622
H -1.2691849751546835 0.9421560673524279 -0.28311805812822927
9
CELL(abcABC):  200.000000 200.000000 200.000000 90.000000 90.000000 90.000000 cell{atomic_unit}  Traj: positions{angstrom}   Bead:       5
C -4.565167468075148 1.802619239488933 -0.27970096368771596
C -3.451893237676052 0.9596137774495185 -0.4309437860761507
C -2.195749203186746 1.528659314174211 -0.1885849281386342
H -3.5598704933841296 -0.08211273864364538 -0.7214758881066977
O -4.440355920307817 3.035541628019714 0.06401744270869256
H -5.588841956809474 1.4321076345727652 -0.451946142388164
H -3.204260666336265 3.1293531806862984 0.17591496400619758
O -2.065158488945028 2.7659289457052947 0.15675791948739107
H -1.2693340868119332 0.941634138302755 -0.2832697661338394
9
CELL(abcABC):  200.000000 200.000000 200.000000 90.000000 90.000000 90.000000 cell{atomic_unit}  Traj: positions{angstrom}   Bead:       6
C -4.564990571818991 1.8019956265822983 -0.27985785946306324
C -3.4522707455727217 0.9596545466049987 -0.4309591344267973
C -2.1954565956697407 1.5292318209851041 -0.188409062736535
H -3.560167155494075 -0.08207901989275482 -0.7214874026189281
O -4.440002837789267 3.035862245391609 0.06412920632594235
H -5.588886164630722 1.4327436386817523 -0.4517771029764658
H -3.213393841749945 3.1302143712674213 0.17551017910654068
O -2.064973291276439 2.765556646139045 0.15666974948182902
H -1.2695014987646873 0.9410460670125885 -0.28344064897268545
9
CELL(abcABC):  200.000000 200.000000 200.000000 90.000000 90.000000 90.000000 cell{atomic_unit}  Traj: positions{angstrom}   Bead:       7
C -4.564804457814184 1.8013310323093155 -0.28002523583060596
C -3.4526727199921097 0.9596990812859024 -0.43097517564829857
C -2.1951432298406 1.5298407659826294 -0.18822184789453542
H -3.5604830677111488 -0.08204321553810388 -0.7214997145718436
O -4.4396504873864275 3.036204051244 0.06424667900707917
H -5.588932836030517 1.4334141484436613 -0.4515989171084262
H -3.2231488438024636 3.131230070384368 0.1751038869744514
O -2.0647501832682638 2.7651544516947957 0.15657610206127318
H -1.2696812874299073 0.9404140982009627 -0.28362426684757297
9
CELL(abcABC):  200.000000 200.000000 200.000000 90.000000 90.000000 90.000000 cell{atomic_unit}  Traj: positions{angstrom}   Bead:       8
C -4.564616763671549 1.8006522137175551 -0.28019636432927747
C -3.453082948638669 0.9597457248030848 -0.4309912254354515
C -2.1948213885552135 1.5304614744665115 -0.18803084211997062
H -3.5608055634753075 -0.08200673809730809 -0.7215123184430996
O -4.439316873293656 3.036553265920977 0.06436486035705466
H -5.588980183786248 1.4340915638662546 -0.4514189297505865
H -3.2331096663025156 3.1323682133106128 0.17471643874000256
O -2.064495932230336 2.764738115276008 0.15648078486968306
H -1.269866546748827 0.9397628858622968 -0.2838134708242837
9
CELL(abcABC):  200.000000 200.000000 200.000000 90.000000 90.000000 90.000000 cell{atomic_unit}  Traj: positions{angstrom}   Bead:       9
C -4.564434915511435 1.7999868172923446 -0.2803642599125163
C -3.4534847284816266 0.9597925784013687 -0.431006630372556
C -2.194503981697325 1.5310686294674418 -0.1878438230742375
H -3.561121568461617 -0.08197106190113487 -0.721524697991646
O -4.439016588139752 3.0368956546237293 0.06447886420665373
H -5.5890260984037505 1.4347490265394771 -0.4512442602759542
H -3.242843893605918 3.133579379773247 0.17436461796056932
O -2.0642218967227843 2.7643248251979884 0.15638767533039657
H -1.2700496889499509 0.9391181940943759 -0.28400076451000233
9
CELL(abcABC):  200.000000 200.000000 200.000000 90.000000 90.000000 90.000000 cell{atomic_unit}  Traj: positions{angstrom}   Bead:       10
C -4.5642658740466056 1.7993617397740649 -0.28052210832756946
C -3.453861856951446 0.9598376133579503 -0.4310208064819026
C -2.194203943055566 1.5316378134350166 -0.18766832580112955
H -3.561418381421729 -0.08193765253237552 -0.7215363640367106
O -4.43875945848856 3.0372173473881587 0.06458423626742825
H -5.589068921094902 1.4353609241244274 -0.45108173440591864
H -3.2519387945349068 3.1348009412411693 0.174060268940778
O -2.0639428533343365 2.7639320952838964 0.1563004988242938
H -1.2702233023384133 0.938506561932517 -0.28417846149727427
9
CELL(abcABC):  200.000000 200.000000 200.000000 90.000000 90.000000 90.000000 cell{atomic_unit}  Traj: positions{angstrom}   Bead:       11
C -4.5641158359604335 1.7988016309377883 -0.28066365136261434
C -3.4541995399083985 0.9598788160472501 -0.431033264268975
C -2.1939335086065754 1.5321468561477674 -0.18751122612299145
H -3.561684334489415 -0.08190774811262536 -0.7215468484901869
O -4.438550328281252 3.0375056182122315 0.06467717963347495
H -5.589107427386834 1.43590423982874 -0.450937485629135
H -3.2600306316101832 3.1359629378446097 0.17380983777700096
O -2.063675382658258 2.763576614576498 0.15622263019132557
H -1.2703805319634789 0.9379538889591111 -0.28433905819734434
9
CELL(abcABC):  200.000000 200.000000 200.000000 90.000000 90.000000 90.000000 cell{atomic_unit}  Traj: positions{angstrom}   Bead:       12
C -4.563989948363585 1.7983277942494778 -0.28078346556643624
C -3.454485026448157 0.9599143062013286 -0.43104362055885426
C -2.1937035255171016 1.532576754403166 -0.18737844300751202
H -3.561909338928312 -0.08188246217371047 -0.721555761340716
O -4.438389627572722 3.0377494780689647 0.06475467627897218
H -5.589140346530912 1.4363600198136097 -0.4508165407544134
H -3.2668220962722248 3.1369948045131104 0.1736149825664664
O -2.0634364618060936 2.7632733310573654 0.1561569435303027
H -1.2705149988406685 0.9374830893764206 -0.2844758997155405
9
CELL(abcABC):  200.000000 200.000000 200.000000 90.000000 90.000000 90.000000 cell{atomic_unit}  Traj: positions{angstrom}   Bead:       13
C -4.563892219296534 1.797957464996474 -0.28087715229896143
C -3.4547080213020096 0.9599424412363726 -0.43105159929355746
C -2.1935229892129486 1.5329122517824791 -0.1872747488692708
H -3.5620852409463426 -0.08186272739632855 -0.7215627968015854
O -4.4382746874140695 3.037940052796691 0.0648144992888162
H -5.589166384399858 1.4367137932793186 -0.45072271045133194
H -3.272089280903467 3.1378319612424175 0.17347384839635777
O -2.0632417763679136 2.763034729744809 0.1561057347799169
H -1.270621088493793 0.9371129423293163 -0.28458350969626717
9
CELL(abcABC):  200.000000 200.000000 200.000000 90.000000 90.000000 90.000000 cell{atomic_unit}  Traj: positions{angstrom}   Bead:       14
C -4.563825530852579 1.797703530797122 -0.28094141429346176
C -3.4548608476274203 0.9599619379495948 -0.431057010022509
C -2.1933987875355077 1.533142042737101 -0.1872036961096173
H -3.562205830896113 -0.0818492183615062 -0.7215677151266333
O -4.438201426616102 3.038070718448956 0.06485513162215693
H -5.589184408533782 1.436955256999062 -0.4506586865908231
H -3.2756779582545716 3.1384214433970294 0.17338285854556326
O -2.06310429286056 2.762870338443465 0.1560706870821351
H -1.2706943280977534 0.9368578612179062 -0.28465767606264036
9
CELL(abcABC):  200.000000 200.000000 200.000000 90.000000 90.000000 90.000000 cell{atomic_unit}  Traj: positions{angstrom}   Bead:       15
C -4.563791739214951 1.7975744107403242 -0.28097409758326497
C -3.4549385716452394 0.9599719187873368 -0.43105974687641996
C -2.193335504471215 1.5332587981627996 -0.18716759599707555
H -3.5622671803485173 -0.0818423668109325 -0.7215703952161014
O -4.438165948254999 3.0381371294044515 0.06487566562720952
H -5.58919385510403 1.4370774837016755 -0.4506262959755035
H -3.2774942550842145 3.138725789641405 0.17333851295307748
O -2.0630331429160185 2.7627865440905626 0.15605289365758002
H -1.2707318114603179 0.9367279911806777 -0.28469543181112916
