7
# CELL(abcABC):   13.38377    13.38377    13.38377    90.00000    90.00000    90.00000  Step:           0  Bead:      10 positions{angstrom}  cell{angstrom}
       O  5.54810e-01 -9.55480e-01 -1.98800e-01
       O  2.93832e+00 -8.70790e-01 -4.56400e-02
       H  1.68750e-01 -1.34489e+00 -9.96690e-01
       H  1.74588e+00 -9.04260e-01 -1.15740e-01
       H  3.31012e+00 -1.49810e-01  4.83590e-01
       H  3.40637e+00 -1.69000e+00  1.71470e-01
       H  8.14400e-02 -1.36290e-01  8.53000e-03
7
# CELL(abcABC):   13.38377    13.38377    13.38377    90.00000    90.00000    90.00000  Step:           1  Bead:      10 positions{angstrom}  cell{angstrom}
       O  5.54810e-01 -9.55480e-01 -1.98800e-01
       O  2.93833e+00 -8.70763e-01 -4.56462e-02
       H  1.68761e-01 -1.34488e+00 -9.96696e-01
       H  1.74588e+00 -9.04260e-01 -1.15740e-01
       H  3.31013e+00 -1.49821e-01  4.83590e-01
       H  3.40636e+00 -1.69000e+00  1.71477e-01
       H  8.14400e-02 -1.36290e-01  8.53000e-03
7
# CELL(abcABC):   13.38377    13.38377    13.38377    90.00000    90.00000    90.00000  Step:           2  Bead:      10 positions{angstrom}  cell{angstrom}
       O  5.54810e-01 -9.55480e-01 -1.98800e-01
       O  2.93835e+00 -8.70722e-01 -4.56557e-02
       H  1.68778e-01 -1.34487e+00 -9.96706e-01
       H  1.74588e+00 -9.04260e-01 -1.15740e-01
       H  3.31015e+00 -1.49839e-01  4.83590e-01
       H  3.40634e+00 -1.69001e+00  1.71486e-01
       H  8.14400e-02 -1.36290e-01  8.53000e-03
7
# CELL(abcABC):   13.38377    13.38377    13.38377    90.00000    90.00000    90.00000  Step:           3  Bead:      10 positions{angstrom}  cell{angstrom}
       O  5.54810e-01 -9.55480e-01 -1.98800e-01
       O  2.93837e+00 -8.70667e-01 -4.56684e-02
       H  1.68800e-01 -1.34486e+00 -9.96719e-01
       H  1.74588e+00 -9.04260e-01 -1.15740e-01
       H  3.31018e+00 -1.49861e-01  4.83591e-01
       H  3.40632e+00 -1.69001e+00  1.71499e-01
       H  8.14400e-02 -1.36290e-01  8.53000e-03
7
# CELL(abcABC):   13.38377    13.38377    13.38377    90.00000    90.00000    90.00000  Step:           4  Bead:      10 positions{angstrom}  cell{angstrom}
       O  5.54810e-01 -9.55480e-01 -1.98800e-01
       O  2.93841e+00 -8.70599e-01 -4.56848e-02
       H  1.68829e-01 -1.34484e+00 -9.96736e-01
       H  1.74588e+00 -9.04260e-01 -1.15740e-01
       H  3.31021e+00 -1.49890e-01  4.83591e-01
       H  3.40629e+00 -1.69001e+00  1.71516e-01
       H  8.14400e-02 -1.36290e-01  8.53000e-03
7
# CELL(abcABC):   13.38377    13.38377    13.38377    90.00000    90.00000    90.00000  Step:           5  Bead:      10 positions{angstrom}  cell{angstrom}
       O  5.54810e-01 -9.55480e-01 -1.98800e-01
       O  2.93844e+00 -8.70518e-01 -4.57052e-02
       H  1.68863e-01 -1.34482e+00 -9.96756e-01
       H  1.74588e+00 -9.04260e-01 -1.15740e-01
       H  3.31025e+00 -1.49923e-01  4.83593e-01
       H  3.40626e+00 -1.69002e+00  1.71535e-01
       H  8.14400e-02 -1.36290e-01  8.53000e-03
7
# CELL(abcABC):   13.38377    13.38377    13.38377    90.00000    90.00000    90.00000  Step:           6  Bead:      10 positions{angstrom}  cell{angstrom}
       O  5.54810e-01 -9.55480e-01 -1.98800e-01
       O  2.93849e+00 -8.70413e-01 -4.57329e-02
       H  1.68909e-01 -1.34480e+00 -9.96783e-01
       H  1.74588e+00 -9.04260e-01 -1.15740e-01
       H  3.31030e+00 -1.49966e-01  4.83596e-01
       H  3.40621e+00 -1.69003e+00  1.71561e-01
       H  8.14400e-02 -1.36290e-01  8.53000e-03
7
# CELL(abcABC):   13.38377    13.38377    13.38377    90.00000    90.00000    90.00000  Step:           7  Bead:      10 positions{angstrom}  cell{angstrom}
       O  5.54810e-01 -9.55480e-01 -1.98800e-01
       O  2.93856e+00 -8.70278e-01 -4.57707e-02
       H  1.68969e-01 -1.34476e+00 -9.96819e-01
       H  1.74588e+00 -9.04260e-01 -1.15740e-01
       H  3.31037e+00 -1.50022e-01  4.83602e-01
       H  3.40615e+00 -1.69003e+00  1.71595e-01
       H  8.14400e-02 -1.36290e-01  8.53000e-03
7
# CELL(abcABC):   13.38377    13.38377    13.38377    90.00000    90.00000    90.00000  Step:           8  Bead:      10 positions{angstrom}  cell{angstrom}
       O  5.54810e-01 -9.55480e-01 -1.98800e-01
       O  2.93864e+00 -8.70107e-01 -4.58228e-02
       H  1.69049e-01 -1.34471e+00 -9.96867e-01
       H  1.74588e+00 -9.04260e-01 -1.15740e-01
       H  3.31047e+00 -1.50090e-01  4.83613e-01
       H  3.40607e+00 -1.69004e+00  1.71639e-01
       H  8.14400e-02 -1.36290e-01  8.53000e-03
7
# CELL(abcABC):   13.38377    13.38377    13.38377    90.00000    90.00000    90.00000  Step:           9  Bead:      10 positions{angstrom}  cell{angstrom}
       O  5.54810e-01 -9.55480e-01 -1.98800e-01
       O  2.93875e+00 -8.69895e-01 -4.58943e-02
       H  1.69154e-01 -1.34465e+00 -9.96930e-01
       H  1.74588e+00 -9.04260e-01 -1.15740e-01
       H  3.31060e+00 -1.50175e-01  4.83632e-01
       H  3.40595e+00 -1.69004e+00  1.71694e-01
       H  8.14400e-02 -1.36290e-01  8.53000e-03
7
# CELL(abcABC):   13.38377    13.38377    13.38377    90.00000    90.00000    90.00000  Step:          10  Bead:      10 positions{angstrom}  cell{angstrom}
       O  5.54810e-01 -9.55480e-01 -1.98800e-01
       O  2.93889e+00 -8.69640e-01 -4.59911e-02
       H  1.69287e-01 -1.34458e+00 -9.97013e-01
       H  1.74588e+00 -9.04260e-01 -1.15740e-01
       H  3.31077e+00 -1.50273e-01  4.83662e-01
       H  3.40581e+00 -1.69004e+00  1.71764e-01
       H  8.14400e-02 -1.36290e-01  8.53000e-03
