7
# CELL(abcABC):   13.38377    13.38377    13.38377    90.00000    90.00000    90.00000  Step:           0  Bead:      11 positions{angstrom}  cell{angstrom}
       O  5.54810e-01 -9.55480e-01 -1.98800e-01
       O  2.93887e+00 -8.85940e-01 -4.96000e-02
       H  1.68750e-01 -1.34489e+00 -9.96690e-01
       H  1.74588e+00 -9.04260e-01 -1.15740e-01
       H  3.32758e+00 -9.31100e-02  3.48470e-01
       H  3.38872e+00 -1.66580e+00  3.06450e-01
       H  8.14400e-02 -1.36290e-01  8.53000e-03
7
# CELL(abcABC):   13.38377    13.38377    13.38377    90.00000    90.00000    90.00000  Step:           1  Bead:      11 positions{angstrom}  cell{angstrom}
       O  5.54810e-01 -9.55480e-01 -1.98800e-01
       O  2.93888e+00 -8.85912e-01 -4.96082e-02
       H  1.68763e-01 -1.34488e+00 -9.96697e-01
       H  1.74588e+00 -9.04260e-01 -1.15740e-01
       H  3.32759e+00 -9.31211e-02  3.48471e-01
       H  3.38871e+00 -1.66580e+00  3.06455e-01
       H  8.14400e-02 -1.36290e-01  8.53000e-03
7
# CELL(abcABC):   13.38377    13.38377    13.38377    90.00000    90.00000    90.00000  Step:           2  Bead:      11 positions{angstrom}  cell{angstrom}
       O  5.54810e-01 -9.55480e-01 -1.98800e-01
       O  2.93889e+00 -8.85870e-01 -4.96204e-02
       H  1.68781e-01 -1.34488e+00 -9.96708e-01
       H  1.74588e+00 -9.04260e-01 -1.15740e-01
       H  3.32761e+00 -9.31377e-02  3.48472e-01
       H  3.38869e+00 -1.66581e+00  3.06464e-01
       H  8.14400e-02 -1.36290e-01  8.53000e-03
7
# CELL(abcABC):   13.38377    13.38377    13.38377    90.00000    90.00000    90.00000  Step:           3  Bead:      11 positions{angstrom}  cell{angstrom}
       O  5.54810e-01 -9.55480e-01 -1.98800e-01
       O  2.93891e+00 -8.85815e-01 -4.96369e-02
       H  1.68807e-01 -1.34487e+00 -9.96722e-01
       H  1.74588e+00 -9.04260e-01 -1.15740e-01
       H  3.32764e+00 -9.31595e-02  3.48474e-01
       H  3.38867e+00 -1.66581e+00  3.06475e-01
       H  8.14400e-02 -1.36290e-01  8.53000e-03
7
# CELL(abcABC):   13.38377    13.38377    13.38377    90.00000    90.00000    90.00000  Step:           4  Bead:      11 positions{angstrom}  cell{angstrom}
       O  5.54810e-01 -9.55480e-01 -1.98800e-01
       O  2.93894e+00 -8.85746e-01 -4.96579e-02
       H  1.68838e-01 -1.34485e+00 -9.96741e-01
       H  1.74588e+00 -9.04260e-01 -1.15740e-01
       H  3.32767e+00 -9.31866e-02  3.48477e-01
       H  3.38863e+00 -1.66582e+00  3.06488e-01
       H  8.14400e-02 -1.36290e-01  8.53000e-03
7
# CELL(abcABC):   13.38377    13.38377    13.38377    90.00000    90.00000    90.00000  Step:           5  Bead:      11 positions{angstrom}  cell{angstrom}
       O  5.54810e-01 -9.55480e-01 -1.98800e-01
       O  2.93897e+00 -8.85663e-01 -4.96835e-02
       H  1.68877e-01 -1.34484e+00 -9.96763e-01
       H  1.74588e+00 -9.04260e-01 -1.15740e-01
       H  3.32772e+00 -9.32186e-02  3.48481e-01
       H  3.38860e+00 -1.66582e+00  3.06504e-01
       H  8.14400e-02 -1.36290e-01  8.53000e-03
7
# CELL(abcABC):   13.38377    13.38377    13.38377    90.00000    90.00000    90.00000  Step:           6  Bead:      11 positions{angstrom}  cell{angstrom}
       O  5.54810e-01 -9.55480e-01 -1.98800e-01
       O  2.93901e+00 -8.85557e-01 -4.97178e-02
       H  1.68928e-01 -1.34482e+00 -9.96793e-01
       H  1.74588e+00 -9.04260e-01 -1.15740e-01
       H  3.32777e+00 -9.32595e-02  3.48487e-01
       H  3.38855e+00 -1.66583e+00  3.06525e-01
       H  8.14400e-02 -1.36290e-01  8.53000e-03
7
# CELL(abcABC):   13.38377    13.38377    13.38377    90.00000    90.00000    90.00000  Step:           7  Bead:      11 positions{angstrom}  cell{angstrom}
       O  5.54810e-01 -9.55480e-01 -1.98800e-01
       O  2.93906e+00 -8.85420e-01 -4.97635e-02
       H  1.68996e-01 -1.34479e+00 -9.96832e-01
       H  1.74588e+00 -9.04260e-01 -1.15740e-01
       H  3.32785e+00 -9.33107e-02  3.48496e-01
       H  3.38848e+00 -1.66584e+00  3.06553e-01
       H  8.14400e-02 -1.36290e-01  8.53000e-03
7
# CELL(abcABC):   13.38377    13.38377    13.38377    90.00000    90.00000    90.00000  Step:           8  Bead:      11 positions{angstrom}  cell{angstrom}
       O  5.54810e-01 -9.55480e-01 -1.98800e-01
       O  2.93913e+00 -8.85249e-01 -4.98247e-02
       H  1.69086e-01 -1.34475e+00 -9.96884e-01
       H  1.74588e+00 -9.04260e-01 -1.15740e-01
       H  3.32795e+00 -9.33732e-02  3.48508e-01
       H  3.38838e+00 -1.66584e+00  3.06590e-01
       H  8.14400e-02 -1.36290e-01  8.53000e-03
7
# CELL(abcABC):   13.38377    13.38377    13.38377    90.00000    90.00000    90.00000  Step:           9  Bead:      11 positions{angstrom}  cell{angstrom}
       O  5.54810e-01 -9.55480e-01 -1.98800e-01
       O  2.93922e+00 -8.85038e-01 -4.99064e-02
       H  1.69203e-01 -1.34471e+00 -9.96953e-01
       H  1.74588e+00 -9.04260e-01 -1.15740e-01
       H  3.32809e+00 -9.34453e-02  3.48521e-01
       H  3.38826e+00 -1.66585e+00  3.06642e-01
       H  8.14400e-02 -1.36290e-01  8.53000e-03
7
# CELL(abcABC):   13.38377    13.38377    13.38377    90.00000    90.00000    90.00000  Step:          10  Bead:      11 positions{angstrom}  cell{angstrom}
       O  5.54810e-01 -9.55480e-01 -1.98800e-01
       O  2.93933e+00 -8.84789e-01 -5.00133e-02
       H  1.69353e-01 -1.34464e+00 -9.97043e-01
       H  1.74588e+00 -9.04260e-01 -1.15740e-01
       H  3.32828e+00 -9.35197e-02  3.48525e-01
       H  3.38809e+00 -1.66584e+00  3.06723e-01
       H  8.14400e-02 -1.36290e-01  8.53000e-03
