7
# CELL(abcABC):   13.38377    13.38377    13.38377    90.00000    90.00000    90.00000  Step:           0  Bead:      15 positions{angstrom}  cell{angstrom}
       O  5.69502e-01 -9.49717e-01 -1.85174e-01
       O  2.95138e+00 -9.89319e-01 -4.20851e-02
       H  2.14588e-01 -1.34267e+00 -9.96677e-01
       H  1.74588e+00 -9.04260e-01 -1.15740e-01
       H  3.48675e+00 -2.15379e-01 -2.68045e-01
       H  3.30425e+00 -1.38423e+00  7.68432e-01
       H  8.14400e-02 -1.36290e-01  8.53000e-03
7
# CELL(abcABC):   13.38377    13.38377    13.38377    90.00000    90.00000    90.00000  Step:           1  Bead:      15 positions{angstrom}  cell{angstrom}
       O  5.69502e-01 -9.49717e-01 -1.85174e-01
       O  2.95138e+00 -9.89319e-01 -4.20851e-02
       H  2.14588e-01 -1.34267e+00 -9.96677e-01
       H  1.74588e+00 -9.04260e-01 -1.15740e-01
       H  3.48675e+00 -2.15379e-01 -2.68045e-01
       H  3.30425e+00 -1.38423e+00  7.68432e-01
       H  8.14400e-02 -1.36290e-01  8.53000e-03
7
# CELL(abcABC):   13.38377    13.38377    13.38377    90.00000    90.00000    90.00000  Step:           2  Bead:      15 positions{angstrom}  cell{angstrom}
       O  5.69502e-01 -9.49717e-01 -1.85174e-01
       O  2.95138e+00 -9.89319e-01 -4.20851e-02
       H  2.14588e-01 -1.34267e+00 -9.96677e-01
       H  1.74588e+00 -9.04260e-01 -1.15740e-01
       H  3.48675e+00 -2.15379e-01 -2.68045e-01
       H  3.30425e+00 -1.38423e+00  7.68432e-01
       H  8.14400e-02 -1.36290e-01  8.53000e-03
7
# CELL(abcABC):   13.38377    13.38377    13.38377    90.00000    90.00000    90.00000  Step:           3  Bead:      15 positions{angstrom}  cell{angstrom}
       O  5.69502e-01 -9.49717e-01 -1.85174e-01
       O  2.95138e+00 -9.89319e-01 -4.20851e-02
       H  2.14588e-01 -1.34267e+00 -9.96677e-01
       H  1.74588e+00 -9.04260e-01 -1.15740e-01
       H  3.48675e+00 -2.15379e-01 -2.68045e-01
       H  3.30425e+00 -1.38423e+00  7.68432e-01
       H  8.14400e-02 -1.36290e-01  8.53000e-03
7
# CELL(abcABC):   13.38377    13.38377    13.38377    90.00000    90.00000    90.00000  Step:           4  Bead:      15 positions{angstrom}  cell{angstrom}
       O  5.69502e-01 -9.49717e-01 -1.85174e-01
       O  2.95138e+00 -9.89319e-01 -4.20851e-02
       H  2.14588e-01 -1.34267e+00 -9.96677e-01
       H  1.74588e+00 -9.04260e-01 -1.15740e-01
       H  3.48675e+00 -2.15379e-01 -2.68045e-01
       H  3.30425e+00 -1.38423e+00  7.68432e-01
       H  8.14400e-02 -1.36290e-01  8.53000e-03
7
# CELL(abcABC):   13.38377    13.38377    13.38377    90.00000    90.00000    90.00000  Step:           5  Bead:      15 positions{angstrom}  cell{angstrom}
       O  5.69502e-01 -9.49717e-01 -1.85174e-01
       O  2.95138e+00 -9.89319e-01 -4.20851e-02
       H  2.14588e-01 -1.34267e+00 -9.96677e-01
       H  1.74588e+00 -9.04260e-01 -1.15740e-01
       H  3.48675e+00 -2.15379e-01 -2.68045e-01
       H  3.30425e+00 -1.38423e+00  7.68432e-01
       H  8.14400e-02 -1.36290e-01  8.53000e-03
7
# CELL(abcABC):   13.38377    13.38377    13.38377    90.00000    90.00000    90.00000  Step:           6  Bead:      15 positions{angstrom}  cell{angstrom}
       O  5.69502e-01 -9.49717e-01 -1.85174e-01
       O  2.95138e+00 -9.89319e-01 -4.20851e-02
       H  2.14588e-01 -1.34267e+00 -9.96677e-01
       H  1.74588e+00 -9.04260e-01 -1.15740e-01
       H  3.48675e+00 -2.15379e-01 -2.68045e-01
       H  3.30425e+00 -1.38423e+00  7.68432e-01
       H  8.14400e-02 -1.36290e-01  8.53000e-03
7
# CELL(abcABC):   13.38377    13.38377    13.38377    90.00000    90.00000    90.00000  Step:           7  Bead:      15 positions{angstrom}  cell{angstrom}
       O  5.69502e-01 -9.49717e-01 -1.85174e-01
       O  2.95138e+00 -9.89319e-01 -4.20851e-02
       H  2.14588e-01 -1.34267e+00 -9.96677e-01
       H  1.74588e+00 -9.04260e-01 -1.15740e-01
       H  3.48675e+00 -2.15379e-01 -2.68045e-01
       H  3.30425e+00 -1.38423e+00  7.68432e-01
       H  8.14400e-02 -1.36290e-01  8.53000e-03
7
# CELL(abcABC):   13.38377    13.38377    13.38377    90.00000    90.00000    90.00000  Step:           8  Bead:      15 positions{angstrom}  cell{angstrom}
       O  5.69502e-01 -9.49717e-01 -1.85174e-01
       O  2.95138e+00 -9.89319e-01 -4.20851e-02
       H  2.14588e-01 -1.34267e+00 -9.96677e-01
       H  1.74588e+00 -9.04260e-01 -1.15740e-01
       H  3.48675e+00 -2.15379e-01 -2.68045e-01
       H  3.30425e+00 -1.38423e+00  7.68432e-01
       H  8.14400e-02 -1.36290e-01  8.53000e-03
7
# CELL(abcABC):   13.38377    13.38377    13.38377    90.00000    90.00000    90.00000  Step:           9  Bead:      15 positions{angstrom}  cell{angstrom}
       O  5.69502e-01 -9.49717e-01 -1.85174e-01
       O  2.95138e+00 -9.89319e-01 -4.20851e-02
       H  2.14588e-01 -1.34267e+00 -9.96677e-01
       H  1.74588e+00 -9.04260e-01 -1.15740e-01
       H  3.48675e+00 -2.15379e-01 -2.68045e-01
       H  3.30425e+00 -1.38423e+00  7.68432e-01
       H  8.14400e-02 -1.36290e-01  8.53000e-03
7
# CELL(abcABC):   13.38377    13.38377    13.38377    90.00000    90.00000    90.00000  Step:          10  Bead:      15 positions{angstrom}  cell{angstrom}
       O  5.69502e-01 -9.49717e-01 -1.85174e-01
       O  2.95138e+00 -9.89319e-01 -4.20851e-02
       H  2.14588e-01 -1.34267e+00 -9.96677e-01
       H  1.74588e+00 -9.04260e-01 -1.15740e-01
       H  3.48675e+00 -2.15379e-01 -2.68045e-01
       H  3.30425e+00 -1.38423e+00  7.68432e-01
       H  8.14400e-02 -1.36290e-01  8.53000e-03
