192
# CELL(abcABC):   23.44524    23.44524    23.44524    90.00000    90.00000    90.00000  Step:       60000  Bead:       0 x_centroid{atomic_unit}  cell{atomic_unit}
       O -2.95577e+01  4.56766e+01 -2.77471e+01
       H -2.82624e+01  4.58789e+01 -2.89817e+01
       H -2.92458e+01  4.39546e+01 -2.72921e+01
       O  3.67356e+01  1.12637e+02 -3.53009e+01
       H  3.83854e+01  1.12992e+02 -3.58905e+01
       H  3.67752e+01  1.13387e+02 -3.37217e+01
       O  2.31544e+01  3.29215e+01 -3.96023e+01
       H  2.20509e+01  3.27176e+01 -3.81808e+01
       H  2.39877e+01  3.45349e+01 -3.92387e+01
       O  5.63663e+01 -5.61655e+01 -8.66965e+01
       H  5.57872e+01 -5.47475e+01 -8.57007e+01
       H  5.74629e+01 -5.53303e+01 -8.79618e+01
       O  6.37551e+01  1.06595e+02  7.69901e+01
       H  6.39373e+01  1.04823e+02  7.67289e+01
       H  6.24414e+01  1.06888e+02  7.58832e+01
       O -3.29612e+01  3.74641e+01 -8.45618e+00
       H -3.31035e+01  3.62309e+01 -7.15350e+00
       H -3.37380e+01  3.68564e+01 -9.92623e+00
       O  2.62221e+01 -2.05856e+01  1.83960e+01
       H  2.55907e+01 -2.00159e+01  2.00497e+01
       H  2.65118e+01 -2.24152e+01  1.86494e+01
       O  6.50476e+00  2.64971e+01  6.05071e+01
       H  6.66857e+00  2.58688e+01  6.21515e+01
       H  5.49138e+00  2.53118e+01  5.96580e+01
       O  9.56226e+01 -3.05515e+01  8.65210e+01
       H  9.38683e+01 -3.01505e+01  8.62834e+01
       H  9.60847e+01 -2.97710e+01  8.81067e+01
       O -5.16475e+01 -8.47560e+01 -4.67938e+01
       H -5.07601e+01 -8.32061e+01 -4.73464e+01
       H -5.17557e+01 -8.57830e+01 -4.82999e+01
       O -1.02917e+02  5.38282e+01  1.04849e+01
       H -1.04310e+02  5.26413e+01  1.00656e+01
       H -1.03728e+02  5.53874e+01  1.09175e+01
       O -8.82905e+01  8.08927e+01  6.82637e+01
       H -8.69504e+01  8.20586e+01  6.83491e+01
       H -8.78120e+01  7.95643e+01  6.92931e+01
       O  1.28445e+00 -6.65722e+01 -4.68165e+01
       H  1.14281e-01 -6.79577e+01 -4.65680e+01
       H  6.34486e-01 -6.51910e+01 -4.57717e+01
       O  1.03145e+02 -5.57868e+01  2.04360e+01
       H  1.04871e+02 -5.61761e+01  2.11060e+01
       H  1.03648e+02 -5.47228e+01  1.90157e+01
       O -1.43293e+01  8.25389e-01  1.90982e+01
       H -1.40242e+01  2.42489e-01  2.08757e+01
       H -1.36882e+01  2.55054e+00  1.90543e+01
       O -6.21645e+01 -5.25118e+01 -3.65902e+01
       H -6.04363e+01 -5.26057e+01 -3.60369e+01
       H -6.33196e+01 -5.20046e+01 -3.52045e+01
       O  3.16915e+00 -4.54627e+01 -3.72910e+01
       H  3.53724e+00 -4.36903e+01 -3.76222e+01
       H  1.66483e+00 -4.58814e+01 -3.82947e+01
       O -2.42115e+01  9.44996e+01 -6.36246e+01
       H -2.51092e+01  9.58324e+01 -6.25457e+01
       H -2.47192e+01  9.46094e+01 -6.53361e+01
       O  9.06608e+01  9.39035e+00  1.17091e+01
       H  9.15505e+01  9.51403e+00  1.33905e+01
       H  9.00488e+01  1.10474e+01  1.16537e+01
       O  1.15262e+02  3.70598e+01 -8.25531e-01
       H  1.16496e+02  3.74312e+01  5.62964e-01
       H  1.16474e+02  3.66035e+01 -2.08438e+00
       O -1.88428e+01  4.51668e+01  1.90878e+01
       H -1.88082e+01  4.43780e+01  1.75255e+01
       H -1.72250e+01  4.58984e+01  1.90849e+01
       O  1.85905e+01  1.72313e+01  6.73304e+01
       H  1.94251e+01  1.58672e+01  6.83629e+01
       H  1.89260e+01  1.67625e+01  6.56698e+01
       O  1.61457e+01  5.09161e+01 -5.59380e+01
       H  1.66386e+01  4.92650e+01 -5.66969e+01
       H  1.53078e+01  5.18405e+01 -5.73095e+01
       O  1.20050e+02 -3.45609e+01  2.56650e+01
       H  1.19044e+02 -3.60695e+01  2.56106e+01
       H  1.20840e+02 -3.43414e+01  2.41034e+01
       O -9.03230e+01  5.39754e+01  3.68934e+01
       H -9.00237e+01  5.40242e+01  3.50702e+01
       H -8.93976e+01  5.24487e+01  3.75033e+01
       O  1.91993e+01 -2.71944e+01  9.75968e+00
       H  2.02910e+01 -2.61579e+01  8.75643e+00
       H  1.96528e+01 -2.88046e+01  9.20245e+00
       O -2.34426e+01 -1.53835e+01  2.55725e+01
       H -2.34536e+01 -1.48341e+01  2.73647e+01
       H -2.50914e+01 -1.50756e+01  2.49143e+01
       O  4.81100e+01  1.19241e+01  1.88468e+01
       H  4.96502e+01  1.10109e+01  1.94199e+01
       H  4.87901e+01  1.32341e+01  1.77527e+01
       O  8.91258e+01 -2.44732e+01 -9.29838e+00
       H  8.90500e+01 -2.54088e+01 -1.08155e+01
       H  9.04857e+01 -2.31622e+01 -9.43793e+00
       O -2.18749e+01 -7.97112e+01  8.23844e+00
       H -2.12482e+01 -7.94452e+01  9.94467e+00
       H -2.08931e+01 -7.85387e+01  7.18856e+00
       O -1.00901e+02  4.73759e+01  7.15681e+01
       H -1.00571e+02  4.67821e+01  6.97682e+01
       H -1.02090e+02  4.61241e+01  7.21508e+01
       O  6.32159e+00 -4.40077e+01  2.49858e+01
       H  4.65176e+00 -4.39306e+01  2.43492e+01
       H  7.10724e+00 -4.23805e+01  2.52179e+01
       O -4.94776e+01  3.97502e+01  6.35981e+00
       H -4.82864e+01  3.90306e+01  7.47412e+00
       H -5.07916e+01  3.85444e+01  6.28508e+00
       O  1.38746e+01  5.71674e+01 -4.79927e+00
       H  1.53123e+01  5.59832e+01 -4.97577e+00
       H  1.24956e+01  5.59500e+01 -4.65364e+00
       O -7.95843e+01 -4.18407e+01 -2.42251e+01
       H -7.91909e+01 -4.04564e+01 -2.32324e+01
       H -7.88325e+01 -4.32770e+01 -2.34904e+01
       O  4.46563e+01 -2.33477e+01 -2.14532e+01
       H  4.28080e+01 -2.35177e+01 -2.14963e+01
       H  4.53323e+01 -2.50293e+01 -2.19764e+01
       O  3.12157e+01  3.12249e+01  4.84798e+01
       H  3.04598e+01  3.19943e+01  4.99222e+01
       H  3.29804e+01  3.12647e+01  4.87437e+01
       O -3.39991e+01  9.21517e+01  8.67716e+01
       H -3.50968e+01  9.34110e+01  8.74259e+01
       H -3.23459e+01  9.24410e+01  8.74845e+01
       O -1.76548e+01  1.36572e+02  1.08464e+02
       H -1.59699e+01  1.35940e+02  1.08981e+02
       H -1.86897e+01  1.35140e+02  1.08803e+02
       O  3.41185e+01  1.15017e+01  3.46849e+01
       H  3.29150e+01  1.09790e+01  3.61345e+01
       H  3.32261e+01  1.27243e+01  3.37657e+01
       O  5.99237e+01 -7.57944e+00 -1.99216e+01
       H  6.02554e+01 -8.45037e+00 -2.15287e+01
       H  6.04360e+01 -5.86859e+00 -2.02027e+01
       O  1.95460e+02 -2.95977e+01  1.32513e+00
       H  1.97181e+02 -2.99626e+01  1.86549e+00
       H  1.95412e+02 -3.05152e+01 -2.47959e-01
       O -1.72280e+01 -1.30802e+01 -1.72940e+01
       H -1.83258e+01 -1.19135e+01 -1.82143e+01
       H -1.56347e+01 -1.20293e+01 -1.71034e+01
       O  1.03219e+01 -4.28478e+01 -3.68237e+01
       H  1.07239e+01 -4.45234e+01 -3.74279e+01
       H  9.28952e+00 -4.29558e+01 -3.53624e+01
       O  2.33075e+01 -4.74294e+00  7.28444e+01
       H  2.21085e+01 -5.46406e+00  7.39824e+01
       H  2.48820e+01 -5.52858e+00  7.33936e+01
       O  2.57012e+01 -7.63162e+01 -2.42340e+00
       H  2.62572e+01 -7.46214e+01 -2.73914e+00
       H  2.48219e+01 -7.62537e+01 -8.88393e-01
       O -3.96252e+01 -5.99785e+01 -7.91566e+01
       H -4.01525e+01 -5.95079e+01 -7.75230e+01
       H -4.07992e+01 -6.10308e+01 -8.00052e+01
       O -9.02774e+00  1.40363e+01  2.21242e+01
       H -8.82273e+00  1.23570e+01  2.14095e+01
       H -7.70630e+00  1.49571e+01  2.14538e+01
       O -5.71408e+01  4.44584e+01  2.66207e+01
       H -5.74548e+01  4.54699e+01  2.80221e+01
       H -5.85261e+01  4.50765e+01  2.55695e+01
       O -7.10969e+01  7.85187e+01 -7.07121e+00
       H -7.05417e+01  8.01466e+01 -6.26713e+00
       H -6.98806e+01  7.78218e+01 -8.26788e+00
       O -4.27206e+01  1.75423e+01 -1.85007e+01
       H -4.23874e+01  1.92114e+01 -1.79493e+01
       H -4.13366e+01  1.70974e+01 -1.96244e+01
       O  1.36438e+01  9.27188e+00  2.60078e+01
       H  1.51937e+01  9.37213e+00  2.51335e+01
       H  1.40751e+01  8.63249e+00  2.76679e+01
       O  1.81823e+01  7.51852e+00  1.58662e+02
       H  1.76482e+01  6.05514e+00  1.57706e+02
       H  1.99204e+01  7.68451e+00  1.58169e+02
       O -1.15165e+01  5.19689e+00  6.46453e+01
       H -1.00557e+01  4.71321e+00  6.35628e+01
       H -1.10450e+01  4.95435e+00  6.64254e+01
       O -6.40186e+01 -6.65929e-02 -8.80881e+01
       H -6.52012e+01  5.77882e-01 -8.69219e+01
       H -6.41563e+01  8.91261e-01 -8.97171e+01
       O  1.02886e+01  6.42762e+01  1.10129e+02
       H  1.10956e+01  6.58705e+01  1.10425e+02
       H  1.16948e+01  6.31839e+01  1.10027e+02
       O -1.40687e+01 -4.79885e+01  2.37619e+01
       H -1.51512e+01 -4.66806e+01  2.44553e+01
       H -1.49287e+01 -4.96507e+01  2.40915e+01
       O -1.96540e+01  2.99095e+01  7.86559e+01
       H -2.12311e+01  3.08761e+01  7.82847e+01
       H -1.83328e+01  3.07099e+01  7.77487e+01
       O  9.00702e+01  4.08623e+01 -8.08993e+00
       H  8.98077e+01  4.27013e+01 -8.47738e+00
       H  8.96317e+01  4.02160e+01 -9.70604e+00
       O  7.05546e+01 -2.21894e+01  8.45255e+01
       H  7.13024e+01 -2.12573e+01  8.59077e+01
       H  7.17495e+01 -2.21924e+01  8.31710e+01
       O -5.05871e+00  3.74051e+01  3.49145e+01
       H -5.88240e+00  3.70731e+01  3.32862e+01
       H -6.43374e+00  3.76347e+01  3.60111e+01
       O  1.51763e+02 -4.72650e-01 -1.54427e+01
       H  1.51832e+02 -1.76331e+00 -1.41651e+01
       H  1.49907e+02 -5.21981e-01 -1.58239e+01
       O -7.34429e+01  7.47786e+01 -3.72485e+01
       H -7.20044e+01  7.49956e+01 -3.61494e+01
       H -7.44968e+01  7.61958e+01 -3.68612e+01
       O -5.35248e+01 -1.59134e+01  6.35560e+00
       H -5.24410e+01 -1.72188e+01  6.38965e+00
       H -5.43964e+01 -1.60702e+01  7.95034e+00
