1
# CELL(abcABC):  188.97261   188.97261   188.97261    90.00000    90.00000    90.00000  Step:           0  Bead:       0 f_centroid{atomic_unit}  cell{atomic_unit}
       H  0.00000e+00  0.00000e+00  0.00000e+00
1
# CELL(abcABC):  188.97261   188.97261   188.97261    90.00000    90.00000    90.00000  Step:           1  Bead:       0 f_centroid{atomic_unit}  cell{atomic_unit}
       H  5.54715e-04 -1.46310e-04  1.88607e-04
1
# CELL(abcABC):  188.97261   188.97261   188.97261    90.00000    90.00000    90.00000  Step:           2  Bead:       0 f_centroid{atomic_unit}  cell{atomic_unit}
       H  1.11785e-03 -2.94843e-04  3.80079e-04
1
# CELL(abcABC):  188.97261   188.97261   188.97261    90.00000    90.00000    90.00000  Step:           3  Bead:       0 f_centroid{atomic_unit}  cell{atomic_unit}
       H  1.66665e-03 -4.39592e-04  5.66675e-04
1
# CELL(abcABC):  188.97261   188.97261   188.97261    90.00000    90.00000    90.00000  Step:           4  Bead:       0 f_centroid{atomic_unit}  cell{atomic_unit}
       H  2.22412e-03 -5.86629e-04  7.56219e-04
1
# CELL(abcABC):  188.97261   188.97261   188.97261    90.00000    90.00000    90.00000  Step:           5  Bead:       0 f_centroid{atomic_unit}  cell{atomic_unit}
       H  2.77767e-03 -7.32632e-04  9.44431e-04
1
# CELL(abcABC):  188.97261   188.97261   188.97261    90.00000    90.00000    90.00000  Step:           6  Bead:       0 f_centroid{atomic_unit}  cell{atomic_unit}
       H  3.32578e-03 -8.77200e-04  1.13079e-03
1
# CELL(abcABC):  188.97261   188.97261   188.97261    90.00000    90.00000    90.00000  Step:           7  Bead:       0 f_centroid{atomic_unit}  cell{atomic_unit}
       H  3.87221e-03 -1.02132e-03  1.31658e-03
1
# CELL(abcABC):  188.97261   188.97261   188.97261    90.00000    90.00000    90.00000  Step:           8  Bead:       0 f_centroid{atomic_unit}  cell{atomic_unit}
       H  4.39970e-03 -1.16045e-03  1.49593e-03
1
# CELL(abcABC):  188.97261   188.97261   188.97261    90.00000    90.00000    90.00000  Step:           9  Bead:       0 f_centroid{atomic_unit}  cell{atomic_unit}
       H  4.93834e-03 -1.30253e-03  1.67907e-03
