1
# CELL(abcABC):  188.97261   188.97261   188.97261    90.00000    90.00000    90.00000  Step:           0  Bead:       0 velocities{atomic_unit}  cell{atomic_unit}
       H -1.70688e-03  2.27255e-04 -1.18910e-04
1
# CELL(abcABC):  188.97261   188.97261   188.97261    90.00000    90.00000    90.00000  Step:           1  Bead:       0 velocities{atomic_unit}  cell{atomic_unit}
       H -3.00669e-03 -5.79275e-04 -1.46033e-05
1
# CELL(abcABC):  188.97261   188.97261   188.97261    90.00000    90.00000    90.00000  Step:           2  Bead:       0 velocities{atomic_unit}  cell{atomic_unit}
       H -2.80757e-03  6.32687e-04 -1.49354e-04
1
# CELL(abcABC):  188.97261   188.97261   188.97261    90.00000    90.00000    90.00000  Step:           3  Bead:       0 velocities{atomic_unit}  cell{atomic_unit}
       H -2.07331e-03  7.75399e-05 -2.79857e-04
1
# CELL(abcABC):  188.97261   188.97261   188.97261    90.00000    90.00000    90.00000  Step:           4  Bead:       0 velocities{atomic_unit}  cell{atomic_unit}
       H -1.10588e-03  1.06887e-03 -1.42381e-03
1
# CELL(abcABC):  188.97261   188.97261   188.97261    90.00000    90.00000    90.00000  Step:           5  Bead:       0 velocities{atomic_unit}  cell{atomic_unit}
       H -5.98500e-04  1.42767e-03 -1.09358e-03
1
# CELL(abcABC):  188.97261   188.97261   188.97261    90.00000    90.00000    90.00000  Step:           6  Bead:       0 velocities{atomic_unit}  cell{atomic_unit}
       H -1.18079e-03  6.15741e-04 -5.43194e-04
1
# CELL(abcABC):  188.97261   188.97261   188.97261    90.00000    90.00000    90.00000  Step:           7  Bead:       0 velocities{atomic_unit}  cell{atomic_unit}
       H -1.97067e-03  1.61277e-04 -1.06578e-03
1
# CELL(abcABC):  188.97261   188.97261   188.97261    90.00000    90.00000    90.00000  Step:           8  Bead:       0 velocities{atomic_unit}  cell{atomic_unit}
       H -1.90556e-03 -5.99471e-04 -1.39692e-03
1
# CELL(abcABC):  188.97261   188.97261   188.97261    90.00000    90.00000    90.00000  Step:           9  Bead:       0 velocities{atomic_unit}  cell{atomic_unit}
       H -1.88668e-03  1.01530e-04 -2.31533e-03
