1
# CELL(abcABC):  188.97261   188.97261   188.97261    90.00000    90.00000    90.00000  Step:           0  Bead:       0 positions{atomic_unit}  cell{atomic_unit}
       H  0.00000e+00  0.00000e+00  0.00000e+00
1
# CELL(abcABC):  188.97261   188.97261   188.97261    90.00000    90.00000    90.00000  Step:           1  Bead:       0 positions{atomic_unit}  cell{atomic_unit}
       H -1.07306e-02 -7.40449e-04 -3.57785e-04
1
# CELL(abcABC):  188.97261   188.97261   188.97261    90.00000    90.00000    90.00000  Step:           2  Bead:       0 positions{atomic_unit}  cell{atomic_unit}
       H -2.30296e-02 -1.14489e-03 -2.55088e-03
1
# CELL(abcABC):  188.97261   188.97261   188.97261    90.00000    90.00000    90.00000  Step:           3  Bead:       0 positions{atomic_unit}  cell{atomic_unit}
       H -3.39228e-02 -1.04114e-04 -3.94470e-03
1
# CELL(abcABC):  188.97261   188.97261   188.97261    90.00000    90.00000    90.00000  Step:           4  Bead:       0 positions{atomic_unit}  cell{atomic_unit}
       H -4.04721e-02  2.08216e-03 -6.25193e-03
1
# CELL(abcABC):  188.97261   188.97261   188.97261    90.00000    90.00000    90.00000  Step:           5  Bead:       0 positions{atomic_unit}  cell{atomic_unit}
       H -4.74621e-02  6.46197e-03 -1.11746e-02
1
# CELL(abcABC):  188.97261   188.97261   188.97261    90.00000    90.00000    90.00000  Step:           6  Bead:       0 positions{atomic_unit}  cell{atomic_unit}
       H -5.04324e-02  1.21710e-02 -1.51871e-02
1
# CELL(abcABC):  188.97261   188.97261   188.97261    90.00000    90.00000    90.00000  Step:           7  Bead:       0 positions{atomic_unit}  cell{atomic_unit}
       H -5.59618e-02  1.34367e-02 -1.97170e-02
1
# CELL(abcABC):  188.97261   188.97261   188.97261    90.00000    90.00000    90.00000  Step:           8  Bead:       0 positions{atomic_unit}  cell{atomic_unit}
       H -6.32693e-02  1.14935e-02 -2.34640e-02
1
# CELL(abcABC):  188.97261   188.97261   188.97261    90.00000    90.00000    90.00000  Step:           9  Bead:       0 positions{atomic_unit}  cell{atomic_unit}
       H -6.80912e-02  1.00673e-02 -3.04384e-02
