3
# CELL(abcABC):  80.  80.  80.  90.  90.  90.  Step:  1991  Bead:  1 positions{angstrom}  cell{angstrom}
O  1.20000e+01  2.81668e+01  2.24216e+01
H  1.23190e+01  2.73735e+01  2.28282e+01
H  1.26630e+01  2.88658e+01  2.25114e+01
3
# CELL(abcABC):  80.  80.  80.  90.  90.  90.  Step:  1992  Bead:  1 positions{angstrom}  cell{angstrom}
O  1.19978e+01  2.81656e+01  2.24220e+01
H  1.23378e+01  2.73257e+01  2.28210e+01
H  1.26737e+01  2.88576e+01  2.25191e+01
3
# CELL(abcABC):  80.  80.  80.  90.  90.  90.  Step:  1993  Bead:  1 positions{angstrom}  cell{angstrom}
O  1.19956e+01  2.81651e+01  2.24232e+01
H  1.23557e+01  2.72831e+01  2.28108e+01
H  1.26802e+01  2.88450e+01  2.25303e+01
3
# CELL(abcABC):  80.  80.  80.  90.  90.  90.  Step:  1994  Bead:  1 positions{angstrom}  cell{angstrom}
O  1.19934e+01  2.81651e+01  2.24255e+01
H  1.23709e+01  2.72492e+01  2.27966e+01
H  1.26825e+01  2.88286e+01  2.25451e+01
3
# CELL(abcABC):  80.  80.  80.  90.  90.  90.  Step:  1995  Bead:  1 positions{angstrom}  cell{angstrom}
O  1.19914e+01  2.81654e+01  2.24287e+01
H  1.23821e+01  2.72261e+01  2.27782e+01
H  1.26813e+01  2.88095e+01  2.25636e+01
3
# CELL(abcABC):  80.  80.  80.  90.  90.  90.  Step:  1996  Bead:  1 positions{angstrom}  cell{angstrom}
O  1.19895e+01  2.81658e+01  2.24327e+01
H  1.23883e+01  2.72152e+01  2.27555e+01
H  1.26778e+01  2.87895e+01  2.25857e+01
3
# CELL(abcABC):  80.  80.  80.  90.  90.  90.  Step:  1997  Bead:  1 positions{angstrom}  cell{angstrom}
O  1.19877e+01  2.81662e+01  2.24374e+01
H  1.23888e+01  2.72166e+01  2.27289e+01
H  1.26733e+01  2.87706e+01  2.26114e+01
3
# CELL(abcABC):  80.  80.  80.  90.  90.  90.  Step:  1998  Bead:  1 positions{angstrom}  cell{angstrom}
O  1.19861e+01  2.81662e+01  2.24427e+01
H  1.23835e+01  2.72300e+01  2.26991e+01
H  1.26694e+01  2.87545e+01  2.26405e+01
3
# CELL(abcABC):  80.  80.  80.  90.  90.  90.  Step:  1999  Bead:  1 positions{angstrom}  cell{angstrom}
O  1.19845e+01  2.81659e+01  2.24482e+01
H  1.23726e+01  2.72536e+01  2.26669e+01
H  1.26670e+01  2.87426e+01  2.26727e+01
3
# CELL(abcABC):  80.  80.  80.  90.  90.  90.  Step:  2000  Bead:  1 positions{angstrom}  cell{angstrom}
O  1.19829e+01  2.81651e+01  2.24537e+01
H  1.23570e+01  2.72849e+01  2.26334e+01
H  1.26664e+01  2.87353e+01  2.27073e+01
