6
# CELL(abcABC):  130.18034   170.29206   240.21758    90.00000    90.00000    90.00000  cell{atomic_unit}  Traj: positions{angstrom}
       H  1.28139e+00  1.53650e+00  1.30062e+00
       C  5.80804e-01  7.14300e-01  5.98675e-01
       H -5.38482e-04  1.07841e-01  1.29384e+00
       H  1.27724e+00  1.05206e-01  2.16240e-02
       H -6.35929e-02  1.30867e+00 -4.97708e-02
       H  1.82673e+00  2.17650e+00  1.84703e+00
6
# CELL(abcABC):  130.18034   170.29206   240.21758    90.00000    90.00000    90.00000  cell{atomic_unit}  Traj: positions{angstrom}
       H  1.28163e+00  1.53678e+00  1.30086e+00
       C  5.80785e-01  7.14278e-01  5.98656e-01
       H -5.36180e-04  1.07845e-01  1.29385e+00
       H  1.27725e+00  1.05210e-01  2.16264e-02
       H -6.35914e-02  1.30869e+00 -4.97694e-02
       H  1.82669e+00  2.17646e+00  1.84698e+00
6
# CELL(abcABC):  130.18034   170.29206   240.21758    90.00000    90.00000    90.00000  cell{atomic_unit}  Traj: positions{angstrom}
       H  1.28203e+00  1.53725e+00  1.30127e+00
       C  5.80754e-01  7.14241e-01  5.98624e-01
       H -5.32354e-04  1.07851e-01  1.29389e+00
       H  1.27729e+00  1.05216e-01  2.16303e-02
       H -6.35890e-02  1.30872e+00 -4.97670e-02
       H  1.82662e+00  2.17638e+00  1.84692e+00
6
# CELL(abcABC):  130.18034   170.29206   240.21758    90.00000    90.00000    90.00000  cell{atomic_unit}  Traj: positions{angstrom}
       H  1.28260e+00  1.53791e+00  1.30183e+00
       C  5.80710e-01  7.14190e-01  5.98581e-01
       H -5.27021e-04  1.07859e-01  1.29393e+00
       H  1.27733e+00  1.05224e-01  2.16359e-02
       H -6.35855e-02  1.30876e+00 -4.97636e-02
       H  1.82653e+00  2.17627e+00  1.84682e+00
6
# CELL(abcABC):  130.18034   170.29206   240.21758    90.00000    90.00000    90.00000  cell{atomic_unit}  Traj: positions{angstrom}
       H  1.28332e+00  1.53876e+00  1.30255e+00
       C  5.80654e-01  7.14124e-01  5.98525e-01
       H -5.20203e-04  1.07870e-01  1.29399e+00
       H  1.27739e+00  1.05235e-01  2.16429e-02
       H -6.35812e-02  1.30882e+00 -4.97594e-02
       H  1.82641e+00  2.17612e+00  1.84670e+00
6
# CELL(abcABC):  130.18034   170.29206   240.21758    90.00000    90.00000    90.00000  cell{atomic_unit}  Traj: positions{angstrom}
       H  1.28419e+00  1.53978e+00  1.30343e+00
       C  5.80586e-01  7.14044e-01  5.98456e-01
       H -5.11929e-04  1.07884e-01  1.29406e+00
       H  1.27746e+00  1.05248e-01  2.16514e-02
       H -6.35759e-02  1.30889e+00 -4.97542e-02
       H  1.82627e+00  2.17596e+00  1.84656e+00
6
# CELL(abcABC):  130.18034   170.29206   240.21758    90.00000    90.00000    90.00000  cell{atomic_unit}  Traj: positions{angstrom}
       H  1.28522e+00  1.54099e+00  1.30446e+00
       C  5.80505e-01  7.13950e-01  5.98376e-01
       H -5.02235e-04  1.07899e-01  1.29414e+00
       H  1.27754e+00  1.05264e-01  2.16615e-02
       H -6.35697e-02  1.30897e+00 -4.97482e-02
       H  1.82610e+00  2.17576e+00  1.84639e+00
6
# CELL(abcABC):  130.18034   170.29206   240.21758    90.00000    90.00000    90.00000  cell{atomic_unit}  Traj: positions{angstrom}
       H  1.28640e+00  1.54238e+00  1.30564e+00
       C  5.80413e-01  7.13841e-01  5.98283e-01
       H -4.91160e-04  1.07917e-01  1.29423e+00
       H  1.27763e+00  1.05281e-01  2.16729e-02
       H -6.35627e-02  1.30907e+00 -4.97413e-02
       H  1.82591e+00  2.17554e+00  1.84620e+00
6
# CELL(abcABC):  130.18034   170.29206   240.21758    90.00000    90.00000    90.00000  cell{atomic_unit}  Traj: positions{angstrom}
       H  1.28773e+00  1.54393e+00  1.30697e+00
       C  5.80309e-01  7.13719e-01  5.98178e-01
       H -4.78752e-04  1.07937e-01  1.29433e+00
       H  1.27773e+00  1.05301e-01  2.16857e-02
       H -6.35548e-02  1.30917e+00 -4.97336e-02
       H  1.82570e+00  2.17529e+00  1.84599e+00
6
# CELL(abcABC):  130.18034   170.29206   240.21758    90.00000    90.00000    90.00000  cell{atomic_unit}  Traj: positions{angstrom}
       H  1.28920e+00  1.54566e+00  1.30844e+00
       C  5.80193e-01  7.13583e-01  5.98062e-01
       H -4.65061e-04  1.07959e-01  1.29445e+00
       H  1.27785e+00  1.05323e-01  2.16999e-02
       H -6.35461e-02  1.30929e+00 -4.97251e-02
       H  1.82548e+00  2.17503e+00  1.84577e+00
6
# CELL(abcABC):  130.18034   170.29206   240.21758    90.00000    90.00000    90.00000  cell{atomic_unit}  Traj: positions{angstrom}
       H  1.29081e+00  1.54755e+00  1.31006e+00
       C  5.80065e-01  7.13433e-01  5.97935e-01
       H -4.50142e-04  1.07983e-01  1.29458e+00
       H  1.27798e+00  1.05347e-01  2.17153e-02
       H -6.35367e-02  1.30942e+00 -4.97160e-02
       H  1.82524e+00  2.17475e+00  1.84552e+00
6
# CELL(abcABC):  130.18034   170.29206   240.21758    90.00000    90.00000    90.00000  cell{atomic_unit}  Traj: positions{angstrom}
       H  1.29255e+00  1.54959e+00  1.31180e+00
       C  5.79927e-01  7.13270e-01  5.97796e-01
       H -4.34055e-04  1.08009e-01  1.29471e+00
       H  1.27811e+00  1.05373e-01  2.17319e-02
       H -6.35266e-02  1.30956e+00 -4.97061e-02
       H  1.82498e+00  2.17445e+00  1.84527e+00
6
# CELL(abcABC):  130.18034   170.29206   240.21758    90.00000    90.00000    90.00000  cell{atomic_unit}  Traj: positions{angstrom}
       H  1.29442e+00  1.55179e+00  1.31368e+00
       C  5.79777e-01  7.13095e-01  5.97646e-01
       H -4.16863e-04  1.08037e-01  1.29486e+00
       H  1.27826e+00  1.05400e-01  2.17497e-02
       H -6.35159e-02  1.30971e+00 -4.96956e-02
       H  1.82472e+00  2.17414e+00  1.84501e+00
6
# CELL(abcABC):  130.18034   170.29206   240.21758    90.00000    90.00000    90.00000  cell{atomic_unit}  Traj: positions{angstrom}
       H  1.29641e+00  1.55413e+00  1.31567e+00
       C  5.79617e-01  7.12907e-01  5.97485e-01
       H -3.98633e-04  1.08067e-01  1.29502e+00
       H  1.27842e+00  1.05430e-01  2.17686e-02
       H -6.35045e-02  1.30987e+00 -4.96845e-02
       H  1.82445e+00  2.17382e+00  1.84474e+00
6
# CELL(abcABC):  130.18034   170.29206   240.21758    90.00000    90.00000    90.00000  cell{atomic_unit}  Traj: positions{angstrom}
       H  1.29852e+00  1.55660e+00  1.31778e+00
       C  5.79446e-01  7.12707e-01  5.97314e-01
       H -3.79431e-04  1.08098e-01  1.29519e+00
       H  1.27859e+00  1.05461e-01  2.17884e-02
       H -6.34926e-02  1.31004e+00 -4.96729e-02
       H  1.82417e+00  2.17350e+00  1.84446e+00
6
# CELL(abcABC):  130.18034   170.29206   240.21758    90.00000    90.00000    90.00000  cell{atomic_unit}  Traj: positions{angstrom}
       H  1.30074e+00  1.55920e+00  1.32001e+00
       C  5.79266e-01  7.12495e-01  5.97134e-01
       H -3.59330e-04  1.08131e-01  1.29536e+00
       H  1.27876e+00  1.05493e-01  2.18092e-02
       H -6.34802e-02  1.31022e+00 -4.96609e-02
       H  1.82390e+00  2.17318e+00  1.84419e+00
6
# CELL(abcABC):  130.18034   170.29206   240.21758    90.00000    90.00000    90.00000  cell{atomic_unit}  Traj: positions{angstrom}
       H  1.30306e+00  1.56192e+00  1.32233e+00
       C  5.79076e-01  7.12272e-01  5.96943e-01
       H -3.38401e-04  1.08166e-01  1.29555e+00
       H  1.27895e+00  1.05527e-01  2.18309e-02
       H -6.34674e-02  1.31041e+00 -4.96484e-02
       H  1.82363e+00  2.17286e+00  1.84391e+00
6
# CELL(abcABC):  130.18034   170.29206   240.21758    90.00000    90.00000    90.00000  cell{atomic_unit}  Traj: positions{angstrom}
       H  1.30547e+00  1.56476e+00  1.32475e+00
       C  5.78877e-01  7.12038e-01  5.96744e-01
       H -3.16716e-04  1.08201e-01  1.29574e+00
       H  1.27914e+00  1.05563e-01  2.18533e-02
       H -6.34542e-02  1.31061e+00 -4.96355e-02
       H  1.82336e+00  2.17254e+00  1.84364e+00
6
# CELL(abcABC):  130.18034   170.29206   240.21758    90.00000    90.00000    90.00000  cell{atomic_unit}  Traj: positions{angstrom}
       H  1.30797e+00  1.56769e+00  1.32725e+00
       C  5.78669e-01  7.11795e-01  5.96536e-01
       H -2.94347e-04  1.08238e-01  1.29594e+00
       H  1.27934e+00  1.05599e-01  2.18765e-02
       H -6.34406e-02  1.31081e+00 -4.96223e-02
       H  1.82310e+00  2.17224e+00  1.84338e+00
6
# CELL(abcABC):  130.18034   170.29206   240.21758    90.00000    90.00000    90.00000  cell{atomic_unit}  Traj: positions{angstrom}
       H  1.31054e+00  1.57071e+00  1.32983e+00
       C  5.78453e-01  7.11541e-01  5.96319e-01
       H -2.71368e-04  1.08276e-01  1.29615e+00
       H  1.27955e+00  1.05637e-01  2.19003e-02
       H -6.34268e-02  1.31102e+00 -4.96088e-02
       H  1.82285e+00  2.17195e+00  1.84314e+00
6
# CELL(abcABC):  130.18034   170.29206   240.21758    90.00000    90.00000    90.00000  cell{atomic_unit}  Traj: positions{angstrom}
       H  1.31318e+00  1.57381e+00  1.33248e+00
       C  5.78230e-01  7.11279e-01  5.96095e-01
       H -2.47849e-04  1.08315e-01  1.29636e+00
       H  1.27976e+00  1.05675e-01  2.19247e-02
       H -6.34127e-02  1.31124e+00 -4.95951e-02
       H  1.82262e+00  2.17168e+00  1.84291e+00
6
# CELL(abcABC):  130.18034   170.29206   240.21758    90.00000    90.00000    90.00000  cell{atomic_unit}  Traj: positions{angstrom}
       H  1.31589e+00  1.57698e+00  1.33518e+00
       C  5.77999e-01  7.11008e-01  5.95864e-01
       H -2.23859e-04  1.08355e-01  1.29658e+00
       H  1.27998e+00  1.05715e-01  2.19496e-02
       H -6.33984e-02  1.31147e+00 -4.95812e-02
       H  1.82241e+00  2.17143e+00  1.84269e+00
6
# CELL(abcABC):  130.18034   170.29206   240.21758    90.00000    90.00000    90.00000  cell{atomic_unit}  Traj: positions{angstrom}
       H  1.31864e+00  1.58021e+00  1.33794e+00
       C  5.77762e-01  7.10730e-01  5.95627e-01
       H -1.99468e-04  1.08395e-01  1.29681e+00
       H  1.28021e+00  1.05755e-01  2.19749e-02
       H -6.33840e-02  1.31170e+00 -4.95672e-02
       H  1.82222e+00  2.17121e+00  1.84250e+00
6
# CELL(abcABC):  130.18034   170.29206   240.21758    90.00000    90.00000    90.00000  cell{atomic_unit}  Traj: positions{angstrom}
       H  1.32143e+00  1.58349e+00  1.34074e+00
       C  5.77519e-01  7.10445e-01  5.95383e-01
       H -1.74741e-04  1.08437e-01  1.29704e+00
       H  1.28044e+00  1.05796e-01  2.20005e-02
       H -6.33694e-02  1.31193e+00 -4.95531e-02
       H  1.82205e+00  2.17101e+00  1.84234e+00
6
# CELL(abcABC):  130.18034   170.29206   240.21758    90.00000    90.00000    90.00000  cell{atomic_unit}  Traj: positions{angstrom}
       H  1.32426e+00  1.58680e+00  1.34357e+00
       C  5.77270e-01  7.10153e-01  5.95134e-01
       H -1.49741e-04  1.08478e-01  1.29728e+00
       H  1.28068e+00  1.05837e-01  2.20265e-02
       H -6.33548e-02  1.31217e+00 -4.95389e-02
       H  1.82191e+00  2.17085e+00  1.84220e+00
6
# CELL(abcABC):  130.18034   170.29206   240.21758    90.00000    90.00000    90.00000  cell{atomic_unit}  Traj: positions{angstrom}
       H  1.32710e+00  1.59015e+00  1.34642e+00
       C  5.77017e-01  7.09856e-01  5.94880e-01
       H -1.24530e-04  1.08521e-01  1.29752e+00
       H  1.28092e+00  1.05879e-01  2.20526e-02
       H -6.33402e-02  1.31242e+00 -4.95247e-02
       H  1.82180e+00  2.17072e+00  1.84209e+00
6
# CELL(abcABC):  130.18034   170.29206   240.21758    90.00000    90.00000    90.00000  cell{atomic_unit}  Traj: positions{angstrom}
       H  1.32997e+00  1.59351e+00  1.34929e+00
       C  5.76760e-01  7.09554e-01  5.94623e-01
       H -9.91635e-05  1.08563e-01  1.29776e+00
       H  1.28116e+00  1.05921e-01  2.20790e-02
       H -6.33256e-02  1.31266e+00 -4.95106e-02
       H  1.82173e+00  2.17063e+00  1.84201e+00
6
# CELL(abcABC):  130.18034   170.29206   240.21758    90.00000    90.00000    90.00000  cell{atomic_unit}  Traj: positions{angstrom}
       H  1.33284e+00  1.59687e+00  1.35217e+00
       C  5.76499e-01  7.09247e-01  5.94361e-01
       H -7.36978e-05  1.08606e-01  1.29801e+00
       H  1.28141e+00  1.05964e-01  2.21054e-02
       H -6.33110e-02  1.31291e+00 -4.94964e-02
       H  1.82168e+00  2.17058e+00  1.84196e+00
6
# CELL(abcABC):  130.18034   170.29206   240.21758    90.00000    90.00000    90.00000  cell{atomic_unit}  Traj: positions{angstrom}
       H  1.33570e+00  1.60024e+00  1.35504e+00
       C  5.76235e-01  7.08938e-01  5.94096e-01
       H -4.81844e-05  1.08649e-01  1.29825e+00
       H  1.28165e+00  1.06006e-01  2.21319e-02
       H -6.32964e-02  1.31317e+00 -4.94823e-02
       H  1.82167e+00  2.17057e+00  1.84196e+00
6
# CELL(abcABC):  130.18034   170.29206   240.21758    90.00000    90.00000    90.00000  cell{atomic_unit}  Traj: positions{angstrom}
       H  1.33856e+00  1.60359e+00  1.35790e+00
       C  5.75968e-01  7.08625e-01  5.93830e-01
       H -2.26718e-05  1.08693e-01  1.29850e+00
       H  1.28190e+00  1.06049e-01  2.21584e-02
       H -6.32820e-02  1.31342e+00 -4.94684e-02
       H  1.82170e+00  2.17060e+00  1.84198e+00
6
# CELL(abcABC):  130.18034   170.29206   240.21758    90.00000    90.00000    90.00000  cell{atomic_unit}  Traj: positions{angstrom}
       H  1.34140e+00  1.60693e+00  1.36075e+00
       C  5.75700e-01  7.08310e-01  5.93561e-01
       H  2.79444e-06  1.08736e-01  1.29875e+00
       H  1.28215e+00  1.06092e-01  2.21849e-02
       H -6.32676e-02  1.31368e+00 -4.94545e-02
       H  1.82177e+00  2.17067e+00  1.84205e+00
6
# CELL(abcABC):  130.18034   170.29206   240.21758    90.00000    90.00000    90.00000  cell{atomic_unit}  Traj: positions{angstrom}
       H  1.34422e+00  1.61023e+00  1.36357e+00
       C  5.75431e-01  7.07994e-01  5.93291e-01
       H  2.81717e-05  1.08779e-01  1.29901e+00
       H  1.28241e+00  1.06135e-01  2.22113e-02
       H -6.32534e-02  1.31393e+00 -4.94407e-02
       H  1.82187e+00  2.17079e+00  1.84215e+00
6
# CELL(abcABC):  130.18034   170.29206   240.21758    90.00000    90.00000    90.00000  cell{atomic_unit}  Traj: positions{angstrom}
       H  1.34701e+00  1.61350e+00  1.36637e+00
       C  5.75161e-01  7.07677e-01  5.93020e-01
       H  5.34202e-05  1.08822e-01  1.29926e+00
       H  1.28266e+00  1.06177e-01  2.22375e-02
       H -6.32394e-02  1.31419e+00 -4.94272e-02
       H  1.82201e+00  2.17096e+00  1.84229e+00
6
# CELL(abcABC):  130.18034   170.29206   240.21758    90.00000    90.00000    90.00000  cell{atomic_unit}  Traj: positions{angstrom}
       H  1.34976e+00  1.61673e+00  1.36912e+00
       C  5.74891e-01  7.07360e-01  5.92750e-01
       H  7.85029e-05  1.08865e-01  1.29951e+00
       H  1.28291e+00  1.06220e-01  2.22636e-02
       H -6.32255e-02  1.31444e+00 -4.94137e-02
       H  1.82219e+00  2.17117e+00  1.84247e+00
6
# CELL(abcABC):  130.18034   170.29206   240.21758    90.00000    90.00000    90.00000  cell{atomic_unit}  Traj: positions{angstrom}
       H  1.35247e+00  1.61992e+00  1.37184e+00
       C  5.74621e-01  7.07044e-01  5.92479e-01
       H  1.03385e-04  1.08908e-01  1.29976e+00
       H  1.28316e+00  1.06262e-01  2.22895e-02
       H -6.32118e-02  1.31470e+00 -4.94005e-02
       H  1.82240e+00  2.17142e+00  1.84268e+00
6
# CELL(abcABC):  130.18034   170.29206   240.21758    90.00000    90.00000    90.00000  cell{atomic_unit}  Traj: positions{angstrom}
       H  1.35514e+00  1.62304e+00  1.37451e+00
       C  5.74352e-01  7.06728e-01  5.92210e-01
       H  1.28035e-04  1.08950e-01  1.30001e+00
       H  1.28341e+00  1.06304e-01  2.23152e-02
       H -6.31982e-02  1.31495e+00 -4.93874e-02
       H  1.82265e+00  2.17171e+00  1.84294e+00
6
# CELL(abcABC):  130.18034   170.29206   240.21758    90.00000    90.00000    90.00000  cell{atomic_unit}  Traj: positions{angstrom}
       H  1.35775e+00  1.62611e+00  1.37713e+00
       C  5.74084e-01  7.06414e-01  5.91942e-01
       H  1.52424e-04  1.08992e-01  1.30026e+00
       H  1.28366e+00  1.06345e-01  2.23406e-02
       H -6.31849e-02  1.31520e+00 -4.93745e-02
       H  1.82294e+00  2.17205e+00  1.84322e+00
6
# CELL(abcABC):  130.18034   170.29206   240.21758    90.00000    90.00000    90.00000  cell{atomic_unit}  Traj: positions{angstrom}
       H  1.36032e+00  1.62912e+00  1.37970e+00
       C  5.73819e-01  7.06102e-01  5.91676e-01
       H  1.76522e-04  1.09033e-01  1.30051e+00
       H  1.28391e+00  1.06386e-01  2.23656e-02
       H -6.31718e-02  1.31545e+00 -4.93619e-02
       H  1.82326e+00  2.17242e+00  1.84354e+00
6
# CELL(abcABC):  130.18034   170.29206   240.21758    90.00000    90.00000    90.00000  cell{atomic_unit}  Traj: positions{angstrom}
       H  1.36282e+00  1.63207e+00  1.38221e+00
       C  5.73555e-01  7.05793e-01  5.91412e-01
       H  2.00305e-04  1.09074e-01  1.30075e+00
       H  1.28415e+00  1.06426e-01  2.23904e-02
       H -6.31589e-02  1.31570e+00 -4.93494e-02
       H  1.82361e+00  2.17284e+00  1.84389e+00
6
# CELL(abcABC):  130.18034   170.29206   240.21758    90.00000    90.00000    90.00000  cell{atomic_unit}  Traj: positions{angstrom}
       H  1.36527e+00  1.63494e+00  1.38467e+00
       C  5.73295e-01  7.05487e-01  5.91151e-01
       H  2.23747e-04  1.09115e-01  1.30099e+00
       H  1.28439e+00  1.06466e-01  2.24148e-02
       H -6.31462e-02  1.31595e+00 -4.93372e-02
       H  1.82399e+00  2.17329e+00  1.84428e+00
6
# CELL(abcABC):  130.18034   170.29206   240.21758    90.00000    90.00000    90.00000  cell{atomic_unit}  Traj: positions{angstrom}
       H  1.36766e+00  1.63774e+00  1.38706e+00
       C  5.73037e-01  7.05185e-01  5.90893e-01
       H  2.46828e-04  1.09155e-01  1.30123e+00
       H  1.28463e+00  1.06506e-01  2.24389e-02
       H -6.31337e-02  1.31619e+00 -4.93252e-02
       H  1.82440e+00  2.17377e+00  1.84469e+00
6
# CELL(abcABC):  130.18034   170.29206   240.21758    90.00000    90.00000    90.00000  cell{atomic_unit}  Traj: positions{angstrom}
       H  1.36998e+00  1.64047e+00  1.38939e+00
       C  5.72783e-01  7.04886e-01  5.90638e-01
       H  2.69525e-04  1.09194e-01  1.30147e+00
       H  1.28486e+00  1.06545e-01  2.24625e-02
       H -6.31215e-02  1.31643e+00 -4.93134e-02
       H  1.82484e+00  2.17428e+00  1.84512e+00
6
# CELL(abcABC):  130.18034   170.29206   240.21758    90.00000    90.00000    90.00000  cell{atomic_unit}  Traj: positions{angstrom}
       H  1.37224e+00  1.64312e+00  1.39165e+00
       C  5.72532e-01  7.04592e-01  5.90387e-01
       H  2.91818e-04  1.09232e-01  1.30170e+00
       H  1.28510e+00  1.06583e-01  2.24857e-02
       H -6.31095e-02  1.31666e+00 -4.93018e-02
       H  1.82530e+00  2.17482e+00  1.84559e+00
6
# CELL(abcABC):  130.18034   170.29206   240.21758    90.00000    90.00000    90.00000  cell{atomic_unit}  Traj: positions{angstrom}
       H  1.37444e+00  1.64570e+00  1.39385e+00
       C  5.72286e-01  7.04303e-01  5.90140e-01
       H  3.13690e-04  1.09270e-01  1.30192e+00
       H  1.28532e+00  1.06620e-01  2.25085e-02
       H -6.30978e-02  1.31690e+00 -4.92906e-02
       H  1.82578e+00  2.17538e+00  1.84607e+00
6
# CELL(abcABC):  130.18034   170.29206   240.21758    90.00000    90.00000    90.00000  cell{atomic_unit}  Traj: positions{angstrom}
       H  1.37657e+00  1.64819e+00  1.39598e+00
       C  5.72044e-01  7.04019e-01  5.89897e-01
       H  3.35124e-04  1.09307e-01  1.30215e+00
       H  1.28555e+00  1.06657e-01  2.25308e-02
       H -6.30863e-02  1.31712e+00 -4.92795e-02
       H  1.82628e+00  2.17597e+00  1.84657e+00
6
# CELL(abcABC):  130.18034   170.29206   240.21758    90.00000    90.00000    90.00000  cell{atomic_unit}  Traj: positions{angstrom}
       H  1.37863e+00  1.65061e+00  1.39805e+00
       C  5.71806e-01  7.03741e-01  5.89659e-01
       H  3.56101e-04  1.09344e-01  1.30237e+00
       H  1.28577e+00  1.06693e-01  2.25527e-02
       H -6.30751e-02  1.31734e+00 -4.92687e-02
       H  1.82679e+00  2.17657e+00  1.84709e+00
6
# CELL(abcABC):  130.18034   170.29206   240.21758    90.00000    90.00000    90.00000  cell{atomic_unit}  Traj: positions{angstrom}
       H  1.38062e+00  1.65295e+00  1.40005e+00
       C  5.71574e-01  7.03468e-01  5.89427e-01
       H  3.76609e-04  1.09379e-01  1.30258e+00
       H  1.28598e+00  1.06728e-01  2.25741e-02
       H -6.30642e-02  1.31756e+00 -4.92582e-02
       H  1.82732e+00  2.17720e+00  1.84762e+00
6
# CELL(abcABC):  130.18034   170.29206   240.21758    90.00000    90.00000    90.00000  cell{atomic_unit}  Traj: positions{angstrom}
       H  1.38255e+00  1.65522e+00  1.40198e+00
       C  5.71346e-01  7.03201e-01  5.89199e-01
       H  3.96633e-04  1.09414e-01  1.30279e+00
       H  1.28619e+00  1.06762e-01  2.25949e-02
       H -6.30535e-02  1.31777e+00 -4.92479e-02
       H  1.82787e+00  2.17783e+00  1.84816e+00
6
# CELL(abcABC):  130.18034   170.29206   240.21758    90.00000    90.00000    90.00000  cell{atomic_unit}  Traj: positions{angstrom}
       H  1.38441e+00  1.65740e+00  1.40384e+00
       C  5.71124e-01  7.02940e-01  5.88976e-01
       H  4.16160e-04  1.09448e-01  1.30299e+00
       H  1.28639e+00  1.06796e-01  2.26153e-02
       H -6.30431e-02  1.31798e+00 -4.92378e-02
       H  1.82842e+00  2.17848e+00  1.84871e+00
6
# CELL(abcABC):  130.18034   170.29206   240.21758    90.00000    90.00000    90.00000  cell{atomic_unit}  Traj: positions{angstrom}
       H  1.38620e+00  1.65950e+00  1.40564e+00
       C  5.70908e-01  7.02686e-01  5.88759e-01
       H  4.35177e-04  1.09481e-01  1.30319e+00
       H  1.28659e+00  1.06829e-01  2.26351e-02
       H -6.30330e-02  1.31818e+00 -4.92281e-02
       H  1.82897e+00  2.17913e+00  1.84927e+00
6
# CELL(abcABC):  130.18034   170.29206   240.21758    90.00000    90.00000    90.00000  cell{atomic_unit}  Traj: positions{angstrom}
       H  1.38793e+00  1.66153e+00  1.40737e+00
       C  5.70697e-01  7.02439e-01  5.88548e-01
       H  4.53674e-04  1.09513e-01  1.30339e+00
       H  1.28679e+00  1.06860e-01  2.26544e-02
       H -6.30231e-02  1.31838e+00 -4.92186e-02
       H  1.82954e+00  2.17979e+00  1.84983e+00
6
# CELL(abcABC):  130.18034   170.29206   240.21758    90.00000    90.00000    90.00000  cell{atomic_unit}  Traj: positions{angstrom}
       H  1.38959e+00  1.66348e+00  1.40903e+00
       C  5.70493e-01  7.02199e-01  5.88343e-01
       H  4.71640e-04  1.09544e-01  1.30358e+00
       H  1.28697e+00  1.06891e-01  2.26731e-02
       H -6.30135e-02  1.31857e+00 -4.92094e-02
       H  1.83010e+00  2.18045e+00  1.85040e+00
6
# CELL(abcABC):  130.18034   170.29206   240.21758    90.00000    90.00000    90.00000  cell{atomic_unit}  Traj: positions{angstrom}
       H  1.39119e+00  1.66535e+00  1.41063e+00
       C  5.70294e-01  7.01966e-01  5.88144e-01
       H  4.89064e-04  1.09575e-01  1.30376e+00
       H  1.28716e+00  1.06921e-01  2.26912e-02
       H -6.30043e-02  1.31876e+00 -4.92005e-02
       H  1.83066e+00  2.18111e+00  1.85096e+00
6
# CELL(abcABC):  130.18034   170.29206   240.21758    90.00000    90.00000    90.00000  cell{atomic_unit}  Traj: positions{angstrom}
       H  1.39271e+00  1.66715e+00  1.41216e+00
       C  5.70102e-01  7.01740e-01  5.87952e-01
       H  5.05937e-04  1.09604e-01  1.30393e+00
       H  1.28733e+00  1.06950e-01  2.27088e-02
       H -6.29953e-02  1.31894e+00 -4.91918e-02
       H  1.83122e+00  2.18177e+00  1.85152e+00
6
# CELL(abcABC):  130.18034   170.29206   240.21758    90.00000    90.00000    90.00000  cell{atomic_unit}  Traj: positions{angstrom}
       H  1.39418e+00  1.66886e+00  1.41363e+00
       C  5.69916e-01  7.01522e-01  5.87765e-01
       H  5.22250e-04  1.09632e-01  1.30410e+00
       H  1.28750e+00  1.06978e-01  2.27258e-02
       H -6.29866e-02  1.31911e+00 -4.91834e-02
       H  1.83178e+00  2.18242e+00  1.85208e+00
6
# CELL(abcABC):  130.18034   170.29206   240.21758    90.00000    90.00000    90.00000  cell{atomic_unit}  Traj: positions{angstrom}
       H  1.39558e+00  1.67051e+00  1.41503e+00
       C  5.69736e-01  7.01311e-01  5.87585e-01
       H  5.37992e-04  1.09659e-01  1.30427e+00
       H  1.28767e+00  1.07005e-01  2.27422e-02
       H -6.29782e-02  1.31928e+00 -4.91753e-02
       H  1.83233e+00  2.18307e+00  1.85263e+00
6
# CELL(abcABC):  130.18034   170.29206   240.21758    90.00000    90.00000    90.00000  cell{atomic_unit}  Traj: positions{angstrom}
       H  1.39692e+00  1.67208e+00  1.41637e+00
       C  5.69563e-01  7.01108e-01  5.87412e-01
       H  5.53156e-04  1.09686e-01  1.30443e+00
       H  1.28783e+00  1.07031e-01  2.27580e-02
       H -6.29701e-02  1.31944e+00 -4.91675e-02
       H  1.83287e+00  2.18370e+00  1.85317e+00
6
# CELL(abcABC):  130.18034   170.29206   240.21758    90.00000    90.00000    90.00000  cell{atomic_unit}  Traj: positions{angstrom}
       H  1.39819e+00  1.67358e+00  1.41765e+00
       C  5.69397e-01  7.00913e-01  5.87246e-01
       H  5.67733e-04  1.09711e-01  1.30458e+00
       H  1.28798e+00  1.07056e-01  2.27732e-02
       H -6.29623e-02  1.31959e+00 -4.91600e-02
       H  1.83340e+00  2.18432e+00  1.85370e+00
6
# CELL(abcABC):  130.18034   170.29206   240.21758    90.00000    90.00000    90.00000  cell{atomic_unit}  Traj: positions{angstrom}
       H  1.39941e+00  1.67500e+00  1.41887e+00
       C  5.69238e-01  7.00726e-01  5.87086e-01
       H  5.81715e-04  1.09735e-01  1.30473e+00
       H  1.28812e+00  1.07080e-01  2.27878e-02
       H -6.29548e-02  1.31974e+00 -4.91528e-02
       H  1.83391e+00  2.18493e+00  1.85422e+00
6
# CELL(abcABC):  130.18034   170.29206   240.21758    90.00000    90.00000    90.00000  cell{atomic_unit}  Traj: positions{angstrom}
       H  1.40056e+00  1.67635e+00  1.42002e+00
       C  5.69086e-01  7.00548e-01  5.86934e-01
       H  5.95094e-04  1.09758e-01  1.30487e+00
       H  1.28826e+00  1.07103e-01  2.28017e-02
       H -6.29477e-02  1.31988e+00 -4.91459e-02
       H  1.83442e+00  2.18552e+00  1.85472e+00
6
# CELL(abcABC):  130.18034   170.29206   240.21758    90.00000    90.00000    90.00000  cell{atomic_unit}  Traj: positions{angstrom}
       H  1.40165e+00  1.67763e+00  1.42112e+00
       C  5.68940e-01  7.00377e-01  5.86788e-01
       H  6.07864e-04  1.09781e-01  1.30500e+00
       H  1.28840e+00  1.07125e-01  2.28150e-02
       H -6.29408e-02  1.32002e+00 -4.91394e-02
       H  1.83491e+00  2.18609e+00  1.85521e+00
6
# CELL(abcABC):  130.18034   170.29206   240.21758    90.00000    90.00000    90.00000  cell{atomic_unit}  Traj: positions{angstrom}
       H  1.40268e+00  1.67884e+00  1.42215e+00
       C  5.68802e-01  7.00215e-01  5.86649e-01
       H  6.20018e-04  1.09802e-01  1.30513e+00
       H  1.28852e+00  1.07145e-01  2.28277e-02
       H -6.29343e-02  1.32015e+00 -4.91331e-02
       H  1.83538e+00  2.18665e+00  1.85568e+00
6
# CELL(abcABC):  130.18034   170.29206   240.21758    90.00000    90.00000    90.00000  cell{atomic_unit}  Traj: positions{angstrom}
       H  1.40365e+00  1.67998e+00  1.42312e+00
       C  5.68671e-01  7.00061e-01  5.86518e-01
       H  6.31549e-04  1.09822e-01  1.30525e+00
       H  1.28864e+00  1.07165e-01  2.28397e-02
       H -6.29281e-02  1.32027e+00 -4.91271e-02
       H  1.83583e+00  2.18718e+00  1.85614e+00
6
# CELL(abcABC):  130.18034   170.29206   240.21758    90.00000    90.00000    90.00000  cell{atomic_unit}  Traj: positions{angstrom}
       H  1.40457e+00  1.68106e+00  1.42404e+00
       C  5.68547e-01  6.99915e-01  5.86394e-01
       H  6.42453e-04  1.09840e-01  1.30536e+00
       H  1.28876e+00  1.07184e-01  2.28510e-02
       H -6.29223e-02  1.32038e+00 -4.91215e-02
       H  1.83626e+00  2.18769e+00  1.85657e+00
6
# CELL(abcABC):  130.18034   170.29206   240.21758    90.00000    90.00000    90.00000  cell{atomic_unit}  Traj: positions{angstrom}
       H  1.40542e+00  1.68206e+00  1.42490e+00
       C  5.68430e-01  6.99779e-01  5.86277e-01
       H  6.52723e-04  1.09858e-01  1.30546e+00
       H  1.28886e+00  1.07201e-01  2.28617e-02
       H -6.29168e-02  1.32049e+00 -4.91162e-02
       H  1.83667e+00  2.18817e+00  1.85699e+00
6
# CELL(abcABC):  130.18034   170.29206   240.21758    90.00000    90.00000    90.00000  cell{atomic_unit}  Traj: positions{angstrom}
       H  1.40622e+00  1.68300e+00  1.42569e+00
       C  5.68321e-01  6.99650e-01  5.86167e-01
       H  6.62353e-04  1.09875e-01  1.30556e+00
       H  1.28896e+00  1.07218e-01  2.28718e-02
       H -6.29116e-02  1.32059e+00 -4.91112e-02
       H  1.83707e+00  2.18863e+00  1.85738e+00
6
# CELL(abcABC):  130.18034   170.29206   240.21758    90.00000    90.00000    90.00000  cell{atomic_unit}  Traj: positions{angstrom}
       H  1.40696e+00  1.68387e+00  1.42644e+00
       C  5.68219e-01  6.99531e-01  5.86065e-01
       H  6.71341e-04  1.09890e-01  1.30566e+00
       H  1.28906e+00  1.07233e-01  2.28811e-02
       H -6.29068e-02  1.32069e+00 -4.91065e-02
       H  1.83743e+00  2.18906e+00  1.85775e+00
6
# CELL(abcABC):  130.18034   170.29206   240.21758    90.00000    90.00000    90.00000  cell{atomic_unit}  Traj: positions{angstrom}
       H  1.40765e+00  1.68467e+00  1.42712e+00
       C  5.68124e-01  6.99420e-01  5.85970e-01
       H  6.79680e-04  1.09905e-01  1.30574e+00
       H  1.28914e+00  1.07247e-01  2.28898e-02
       H -6.29023e-02  1.32078e+00 -4.91022e-02
       H  1.83778e+00  2.18947e+00  1.85809e+00
6
# CELL(abcABC):  130.18034   170.29206   240.21758    90.00000    90.00000    90.00000  cell{atomic_unit}  Traj: positions{angstrom}
       H  1.40827e+00  1.68540e+00  1.42775e+00
       C  5.68037e-01  6.99317e-01  5.85883e-01
       H  6.87367e-04  1.09918e-01  1.30582e+00
       H  1.28922e+00  1.07261e-01  2.28978e-02
       H -6.28981e-02  1.32086e+00 -4.90982e-02
       H  1.83810e+00  2.18984e+00  1.85841e+00
6
# CELL(abcABC):  130.18034   170.29206   240.21758    90.00000    90.00000    90.00000  cell{atomic_unit}  Traj: positions{angstrom}
       H  1.40884e+00  1.68608e+00  1.42832e+00
       C  5.67958e-01  6.99224e-01  5.85803e-01
       H  6.94398e-04  1.09930e-01  1.30590e+00
       H  1.28930e+00  1.07273e-01  2.29051e-02
       H -6.28943e-02  1.32093e+00 -4.90945e-02
       H  1.83839e+00  2.19019e+00  1.85871e+00
6
# CELL(abcABC):  130.18034   170.29206   240.21758    90.00000    90.00000    90.00000  cell{atomic_unit}  Traj: positions{angstrom}
       H  1.40936e+00  1.68668e+00  1.42884e+00
       C  5.67885e-01  6.99139e-01  5.85731e-01
       H  7.00769e-04  1.09941e-01  1.30596e+00
       H  1.28936e+00  1.07283e-01  2.29118e-02
       H -6.28909e-02  1.32100e+00 -4.90912e-02
       H  1.83866e+00  2.19050e+00  1.85897e+00
6
# CELL(abcABC):  130.18034   170.29206   240.21758    90.00000    90.00000    90.00000  cell{atomic_unit}  Traj: positions{angstrom}
       H  1.40982e+00  1.68722e+00  1.42930e+00
       C  5.67821e-01  6.99063e-01  5.85666e-01
       H  7.06478e-04  1.09951e-01  1.30602e+00
       H  1.28942e+00  1.07293e-01  2.29177e-02
       H -6.28878e-02  1.32106e+00 -4.90883e-02
       H  1.83890e+00  2.19078e+00  1.85922e+00
6
# CELL(abcABC):  130.18034   170.29206   240.21758    90.00000    90.00000    90.00000  cell{atomic_unit}  Traj: positions{angstrom}
       H  1.41023e+00  1.68770e+00  1.42971e+00
       C  5.67764e-01  6.98996e-01  5.85609e-01
       H  7.11522e-04  1.09960e-01  1.30607e+00
       H  1.28947e+00  1.07302e-01  2.29230e-02
       H -6.28851e-02  1.32111e+00 -4.90856e-02
       H  1.83912e+00  2.19104e+00  1.85943e+00
6
# CELL(abcABC):  130.18034   170.29206   240.21758    90.00000    90.00000    90.00000  cell{atomic_unit}  Traj: positions{angstrom}
       H  1.41058e+00  1.68811e+00  1.43006e+00
       C  5.67714e-01  6.98938e-01  5.85559e-01
       H  7.15898e-04  1.09967e-01  1.30612e+00
       H  1.28952e+00  1.07309e-01  2.29275e-02
       H -6.28827e-02  1.32116e+00 -4.90834e-02
       H  1.83930e+00  2.19126e+00  1.85962e+00
6
# CELL(abcABC):  130.18034   170.29206   240.21758    90.00000    90.00000    90.00000  cell{atomic_unit}  Traj: positions{angstrom}
       H  1.41088e+00  1.68846e+00  1.43036e+00
       C  5.67672e-01  6.98889e-01  5.85517e-01
       H  7.19605e-04  1.09974e-01  1.30616e+00
       H  1.28956e+00  1.07316e-01  2.29314e-02
       H -6.28807e-02  1.32119e+00 -4.90814e-02
       H  1.83946e+00  2.19144e+00  1.85978e+00
6
# CELL(abcABC):  130.18034   170.29206   240.21758    90.00000    90.00000    90.00000  cell{atomic_unit}  Traj: positions{angstrom}
       H  1.41112e+00  1.68874e+00  1.43060e+00
       C  5.67638e-01  6.98849e-01  5.85483e-01
       H  7.22640e-04  1.09979e-01  1.30619e+00
       H  1.28959e+00  1.07321e-01  2.29345e-02
       H -6.28791e-02  1.32123e+00 -4.90798e-02
       H  1.83959e+00  2.19159e+00  1.85991e+00
6
# CELL(abcABC):  130.18034   170.29206   240.21758    90.00000    90.00000    90.00000  cell{atomic_unit}  Traj: positions{angstrom}
       H  1.41131e+00  1.68897e+00  1.43079e+00
       C  5.67611e-01  6.98817e-01  5.85456e-01
       H  7.25002e-04  1.09983e-01  1.30621e+00
       H  1.28961e+00  1.07325e-01  2.29370e-02
       H -6.28778e-02  1.32125e+00 -4.90786e-02
       H  1.83969e+00  2.19171e+00  1.86001e+00
6
# CELL(abcABC):  130.18034   170.29206   240.21758    90.00000    90.00000    90.00000  cell{atomic_unit}  Traj: positions{angstrom}
       H  1.41144e+00  1.68912e+00  1.43093e+00
       C  5.67592e-01  6.98795e-01  5.85437e-01
       H  7.26690e-04  1.09986e-01  1.30623e+00
       H  1.28963e+00  1.07328e-01  2.29388e-02
       H -6.28769e-02  1.32127e+00 -4.90777e-02
       H  1.83977e+00  2.19180e+00  1.86008e+00
6
# CELL(abcABC):  130.18034   170.29206   240.21758    90.00000    90.00000    90.00000  cell{atomic_unit}  Traj: positions{angstrom}
       H  1.41152e+00  1.68922e+00  1.43101e+00
       C  5.67581e-01  6.98781e-01  5.85426e-01
       H  7.27703e-04  1.09988e-01  1.30624e+00
       H  1.28964e+00  1.07329e-01  2.29398e-02
       H -6.28764e-02  1.32128e+00 -4.90772e-02
       H  1.83981e+00  2.19185e+00  1.86013e+00
6
# CELL(abcABC):  130.18034   170.29206   240.21758    90.00000    90.00000    90.00000  cell{atomic_unit}  Traj: positions{angstrom}
       H  1.41155e+00  1.68925e+00  1.43103e+00
       C  5.67577e-01  6.98777e-01  5.85422e-01
       H  7.28041e-04  1.09988e-01  1.30624e+00
       H  1.28964e+00  1.07330e-01  2.29402e-02
       H -6.28762e-02  1.32128e+00 -4.90770e-02
       H  1.83982e+00  2.19187e+00  1.86014e+00
