9
# CELL(abcABC):  130.18034   170.29206   240.21758    90.00000    90.00000    90.00000  cell{atomic_unit}  Traj: x_centroid{angstrom} Step:         146  Bead:       0 
       O -1.79023e+00 -5.25499e-01  1.53684e+00
       H -1.28859e+00  2.91196e-01  1.39258e+00
       H -1.23712e+00 -1.07110e+00  2.09602e+00
       O -1.79240e+00 -4.18553e-01 -1.26201e+00
       H -1.95096e+00 -7.35119e-01 -3.59669e-01
       H -2.62460e+00 -5.19922e-01 -1.72285e+00
       O -5.12435e-01  1.58699e+00  2.20463e-01
       H -7.39028e-01  2.51139e+00  1.23220e-01
       H -9.01481e-01  1.13679e+00 -5.43819e-01
