192
# CELL(abcABC):   23.35215    23.35215    23.35215    90.00000    90.00000    90.00000  Step:       60000  Bead:       0 x_centroid{atomic_unit}  cell{atomic_unit}
       O -4.70207e+01  7.06726e+01 -2.52633e+01
       H -4.71485e+01  7.22869e+01 -2.59329e+01
       H -4.57594e+01  7.05724e+01 -2.38785e+01
       O  1.40209e+01  9.88768e+01 -6.37605e+01
       H  1.52603e+01  9.91074e+01 -6.49862e+01
       H  1.44768e+01  9.76521e+01 -6.25633e+01
       O  3.87578e+01  5.78346e+01 -5.60271e+01
       H  3.71469e+01  5.71942e+01 -5.56905e+01
       H  3.93543e+01  5.70485e+01 -5.75157e+01
       O  7.29551e+01 -3.84706e+01 -9.71579e+01
       H  7.21206e+01 -3.70445e+01 -9.64346e+01
       H  7.15996e+01 -3.95333e+01 -9.78520e+01
       O  8.49083e+01  1.40989e+02  5.61481e+01
       H  8.61596e+01  1.39861e+02  5.54079e+01
       H  8.33106e+01  1.40573e+02  5.52546e+01
       O -1.18148e+01  3.37238e+01 -2.10038e+01
       H -1.03628e+01  3.40991e+01 -2.01596e+01
       H -1.31902e+01  3.44892e+01 -1.99773e+01
       O  1.11723e+00 -3.50133e+01  2.35650e+01
       H  2.69980e+00 -3.56082e+01  2.41154e+01
       H  1.74659e+00 -3.34353e+01  2.29522e+01
       O -9.74217e+00 -3.04545e+00  7.30228e+01
       H -9.13275e+00 -4.71738e+00  7.33053e+01
       H -1.02140e+01 -2.90906e+00  7.12805e+01
       O  7.68751e+01 -1.80238e+01  1.11493e+02
       H  7.77036e+01 -1.91911e+01  1.12666e+02
       H  7.55057e+01 -1.74366e+01  1.12442e+02
       O -4.97788e+01 -9.92517e+01 -5.34788e+01
       H -4.90001e+01 -9.77859e+01 -5.43528e+01
       H -5.03788e+01 -1.00571e+02 -5.44997e+01
       O -7.05605e+01  3.28330e+01  5.21790e+00
       H -6.93758e+01  3.32225e+01  3.88708e+00
       H -7.09480e+01  3.11288e+01  4.71306e+00
       O -1.18192e+02  7.57858e+01  6.01101e+01
       H -1.19638e+02  7.58165e+01  6.12593e+01
       H -1.19034e+02  7.53020e+01  5.84465e+01
       O  6.97285e+00 -7.96263e+01 -1.27233e+01
       H  5.91334e+00 -8.09439e+01 -1.33576e+01
       H  5.94203e+00 -7.86781e+01 -1.15689e+01
       O  7.35312e+01 -6.00056e+01  9.32544e+00
       H  7.28694e+01 -6.03843e+01  7.62300e+00
       H  7.20046e+01 -5.99299e+01  1.02920e+01
       O -5.93941e+01 -2.76126e-01  2.93821e+01
       H -6.03827e+01 -1.17984e+00  3.06897e+01
       H -5.84605e+01 -1.58114e+00  2.85140e+01
       O -8.28795e+01 -4.11588e+01  2.56548e+00
       H -8.18495e+01 -4.15346e+01  4.05348e+00
       H -8.28336e+01 -3.92976e+01  2.44745e+00
       O -1.75761e+00 -4.08761e+01 -5.02315e+01
       H -1.90887e+00 -3.95115e+01 -4.89734e+01
       H -3.46613e+00 -4.10200e+01 -5.06544e+01
       O -4.22515e+01  1.04613e+02 -7.79733e+01
       H -4.08904e+01  1.05904e+02 -7.77186e+01
       H -4.22694e+01  1.03763e+02 -7.63654e+01
       O  5.79457e+01  4.06249e+01  1.37078e+01
       H  5.94887e+01  4.01309e+01  1.28008e+01
       H  5.81154e+01  4.24751e+01  1.36241e+01
       O  1.10959e+02  5.84155e+01 -4.81235e+00
       H  1.10541e+02  5.83904e+01 -6.52412e+00
       H  1.10775e+02  6.01458e+01 -4.27189e+00
       O -2.00683e+01  6.79394e+01  1.82789e+01
       H -1.91367e+01  6.92240e+01  1.72800e+01
       H -2.13139e+01  6.88526e+01  1.91780e+01
       O  2.55948e+01  4.10037e+01  9.70979e+01
       H  2.73411e+01  4.10350e+01  9.67020e+01
       H  2.55041e+01  4.24208e+01  9.81860e+01
       O  1.73192e+01  3.43809e+01 -6.49395e+01
       H  1.68982e+01  3.61512e+01 -6.49173e+01
       H  1.88927e+01  3.41066e+01 -6.57255e+01
       O  1.15747e+02 -2.65706e+01  3.31535e+01
       H  1.15848e+02 -2.82402e+01  3.39104e+01
       H  1.17370e+02 -2.59432e+01  3.29603e+01
       O -7.31710e+01  2.82792e+01  3.22048e+01
       H -7.42058e+01  2.98911e+01  3.23248e+01
       H -7.26111e+01  2.81483e+01  3.04651e+01
       O  6.85258e+01 -4.82439e+01  1.44092e+01
       H  7.01577e+01 -4.75368e+01  1.49640e+01
       H  6.87611e+01 -4.85826e+01  1.26421e+01
       O -5.38141e+01 -3.10236e+01  1.26514e+01
       H -5.40285e+01 -3.28531e+01  1.33429e+01
       H -5.22100e+01 -3.09431e+01  1.18031e+01
       O  3.95363e+01 -7.18822e+00  2.11815e+01
       H  3.86960e+01 -5.66669e+00  2.11531e+01
       H  4.08697e+01 -6.64142e+00  2.21555e+01
       O  1.33474e+02 -3.80235e+01  9.47100e+00
       H  1.33741e+02 -3.69382e+01  7.99659e+00
       H  1.32085e+02 -3.90749e+01  8.81736e+00
       O -6.18886e+00 -6.95036e+01 -9.12622e+00
       H -4.56117e+00 -7.02745e+01 -9.08152e+00
       H -6.81766e+00 -6.95479e+01 -1.08610e+01
       O -6.42896e+01  2.85227e+01  5.11125e+01
       H -6.41904e+01  2.86791e+01  5.28803e+01
       H -6.25497e+01  2.87542e+01  5.06732e+01
       O -6.15533e+00 -4.16523e+01  1.66470e+01
       H -7.62645e+00 -4.06014e+01  1.64054e+01
       H -6.37765e+00 -4.30760e+01  1.55807e+01
       O -6.79497e+01  4.87757e+01 -9.30160e+00
       H -6.92477e+01  5.00432e+01 -9.71395e+00
       H -6.79002e+01  4.81094e+01 -1.10128e+01
       O  6.51675e+01  6.90606e+01 -3.25417e+00
       H  6.68124e+01  6.90998e+01 -2.39981e+00
       H  6.52621e+01  6.79222e+01 -4.61834e+00
       O -1.08489e+02 -4.98391e+01 -8.36123e+01
       H -1.08294e+02 -5.16219e+01 -8.31700e+01
       H -1.07697e+02 -4.90826e+01 -8.21350e+01
       O  4.36619e+01 -2.99501e+01 -2.24611e+01
       H  4.50895e+01 -3.04369e+01 -2.33504e+01
       H  4.40462e+01 -3.05802e+01 -2.08137e+01
       O  1.45319e+01  2.53232e+01  4.34288e+01
       H  1.48659e+01  2.64123e+01  4.21390e+01
       H  1.61009e+01  2.44037e+01  4.36329e+01
       O -3.79714e+01  3.70426e+01  6.29847e+01
       H -3.71205e+01  3.80270e+01  6.15788e+01
       H -3.67584e+01  3.69610e+01  6.43615e+01
       O -1.65066e+01  9.41415e+01  8.52449e+01
       H -1.79557e+01  9.46907e+01  8.43149e+01
       H -1.63277e+01  9.54915e+01  8.64393e+01
       O  3.48710e+01  1.28588e+01  4.43991e+01
       H  3.62270e+01  1.39975e+01  4.49156e+01
       H  3.46773e+01  1.18108e+01  4.58205e+01
       O  9.67967e+01  1.68702e+01 -1.00893e+01
       H  9.73864e+01  1.80494e+01 -8.91016e+00
       H  9.60845e+01  1.55993e+01 -9.00637e+00
       O  1.86654e+02  1.08517e+01  1.24949e+01
       H  1.86169e+02  9.24608e+00  1.31558e+01
       H  1.87780e+02  1.14366e+01  1.37656e+01
       O -3.43871e+01 -1.56067e+01 -5.94254e+00
       H -3.61185e+01 -1.61178e+01 -5.37654e+00
       H -3.41115e+01 -1.43817e+01 -4.70638e+00
       O -3.38503e+01 -2.68367e+01 -2.53961e+01
       H -3.52892e+01 -2.75770e+01 -2.63102e+01
       H -3.36697e+01 -2.51299e+01 -2.61043e+01
       O  4.13390e+01 -2.64262e+01  7.73293e+01
       H  4.16922e+01 -2.58168e+01  7.57019e+01
       H  4.29963e+01 -2.63319e+01  7.83723e+01
       O  4.46340e+01 -6.55066e+01  2.71599e+01
       H  4.32376e+01 -6.46947e+01  2.62848e+01
       H  4.40826e+01 -6.71846e+01  2.70467e+01
       O -5.07245e+01 -3.65899e+01 -9.35532e+01
       H -5.16073e+01 -3.60171e+01 -9.50111e+01
       H -4.91832e+01 -3.56322e+01 -9.37811e+01
       O  4.70053e+00  5.67644e+01  5.03446e+01
       H  5.41371e+00  5.51319e+01  5.05716e+01
       H  6.00121e+00  5.78725e+01  5.12674e+01
       O -2.46578e+01  6.13856e+01  5.21830e+01
       H -2.31681e+01  6.22089e+01  5.14734e+01
       H -2.42620e+01  5.95959e+01  5.23288e+01
       O -3.55342e+01  9.27565e+01 -1.02909e+01
       H -3.41690e+01  9.35546e+01 -9.43845e+00
       H -3.68231e+01  9.30783e+01 -9.09710e+00
       O -6.19573e+01 -1.27072e+00  1.51708e+00
       H -6.10681e+01 -6.96705e-01  2.97244e+00
       H -6.17229e+01  2.66009e-02  3.36941e-01
       O  3.27293e+01  2.60867e+01  2.17700e+01
       H  3.26555e+01  2.73585e+01  2.30850e+01
       H  3.44344e+01  2.55915e+01  2.14346e+01
       O  5.00373e+01  2.43033e+01  1.88620e+02
       H  4.98867e+01  2.57964e+01  1.89614e+02
       H  5.17942e+01  2.37336e+01  1.88689e+02
       O -2.27796e+01 -3.05838e+01  4.36150e+01
       H -2.18755e+01 -2.90986e+01  4.36573e+01
       H -2.39646e+01 -3.00610e+01  4.24314e+01
       O -4.27881e+01  1.12789e-01 -6.05865e+01
       H -4.11698e+01 -8.55309e-01 -6.05371e+01
       H -4.26216e+01  1.23863e+00 -6.19995e+01
       O  2.13115e+01  3.85095e+01  1.04577e+02
       H  2.15455e+01  3.82204e+01  1.02860e+02
       H  2.15955e+01  3.68583e+01  1.05188e+02
       O -1.34134e+01 -6.11417e+01  3.58534e+01
       H -1.44552e+01 -5.96717e+01  3.55968e+01
       H -1.36425e+01 -6.15515e+01  3.75362e+01
       O -3.13831e+01  1.59292e+01  9.93325e+01
       H -3.06093e+01  1.74045e+01  1.00249e+02
       H -3.28277e+01  1.53901e+01  1.00389e+02
       O  7.67734e+01  5.25555e+01 -1.37130e+01
       H  7.79099e+01  5.35911e+01 -1.27192e+01
       H  7.52060e+01  5.34513e+01 -1.35513e+01
       O  7.84275e+01 -3.35273e+01  7.57507e+01
       H  7.79089e+01 -3.20185e+01  7.48981e+01
       H  7.82431e+01 -3.30578e+01  7.75922e+01
       O -2.89234e+01 -5.64236e-02  4.86761e+01
       H -3.06134e+01 -7.53860e-01  4.88697e+01
       H -2.85265e+01 -1.58117e-01  4.68503e+01
       O  1.48503e+02  1.82268e+01 -5.09662e+01
       H  1.48619e+02  1.66757e+01 -5.18738e+01
       H  1.47017e+02  1.90638e+01 -5.12139e+01
       O -8.61429e+01  8.70227e+01 -6.80927e+01
       H -8.56368e+01  8.86503e+01 -6.77898e+01
       H -8.59905e+01  8.70080e+01 -6.98560e+01
       O -5.34163e+01 -1.75375e+01  2.48343e+01
       H -5.47974e+01 -1.82264e+01  2.41637e+01
       H -5.30381e+01 -1.59727e+01  2.41119e+01
