192
# CELL(abcABC):   22.91558    22.91558    22.91558    90.00000    90.00000    90.00000  Step:       60000  Bead:       0 x_centroid{atomic_unit}  cell{atomic_unit}
       O -3.16228e+01  4.39361e+01 -2.90922e+01
       H -3.10953e+01  4.34203e+01 -3.07702e+01
       H -3.11155e+01  4.24717e+01 -2.81889e+01
       O  3.61197e+01  1.06551e+02 -4.59553e+01
       H  3.70410e+01  1.05312e+02 -4.49809e+01
       H  3.58743e+01  1.07926e+02 -4.47669e+01
       O  1.87540e+01  3.00010e+01 -4.97391e+01
       H  1.95676e+01  2.86183e+01 -5.05498e+01
       H  1.79447e+01  3.08830e+01 -5.10200e+01
       O  7.67395e+01 -3.36467e+01 -1.00740e+02
       H  7.77541e+01 -3.21463e+01 -1.00514e+02
       H  7.67024e+01 -3.36413e+01 -1.02563e+02
       O  5.74195e+01  1.23258e+02  7.49700e+01
       H  5.85545e+01  1.24192e+02  7.59673e+01
       H  5.69414e+01  1.21969e+02  7.61115e+01
       O -4.06694e+01  2.86660e+01  2.17489e+00
       H -3.93267e+01  2.92854e+01  3.12843e+00
       H -4.20717e+01  2.91993e+01  3.12566e+00
       O  2.71615e+01 -1.13409e+01  1.95995e+01
       H  2.73037e+01 -9.99001e+00  1.84340e+01
       H  2.86721e+01 -1.12441e+01  2.07421e+01
       O  7.36019e+00  2.04034e+01  5.11099e+01
       H  8.54998e+00  1.90256e+01  5.09155e+01
       H  6.20342e+00  1.99517e+01  5.24016e+01
       O  9.17612e+01 -3.80094e+01  8.10459e+01
       H  9.04029e+01 -3.88055e+01  8.02691e+01
       H  9.09843e+01 -3.64723e+01  8.16044e+01
       O -4.93359e+01 -1.00848e+02 -5.13229e+01
       H -5.03786e+01 -1.02141e+02 -5.20113e+01
       H -4.86384e+01 -1.01387e+02 -4.97253e+01
       O -1.20719e+02  4.16768e+01  7.56631e+00
       H -1.20462e+02  4.32159e+01  6.64803e+00
       H -1.19234e+02  4.07314e+01  7.45410e+00
       O -1.11379e+02  7.29215e+01  6.58194e+01
       H -1.10280e+02  7.14745e+01  6.56390e+01
       H -1.10600e+02  7.38461e+01  6.70724e+01
       O  1.43354e+01 -5.73971e+01 -3.61582e+01
       H  1.35517e+01 -5.67639e+01 -3.46786e+01
       H  1.61505e+01 -5.75162e+01 -3.60095e+01
       O  9.05188e+01 -5.60356e+01  1.29290e+01
       H  9.20132e+01 -5.51852e+01  1.31903e+01
       H  8.96914e+01 -5.61381e+01  1.45532e+01
       O -2.36718e+00  1.37423e+01  2.58478e+01
       H -1.49277e+00  1.29103e+01  2.44863e+01
       H -3.94269e+00  1.28460e+01  2.57762e+01
       O -5.87926e+01 -3.10769e+01 -6.41280e+01
       H -5.97473e+01 -3.18517e+01 -6.27911e+01
       H -5.70679e+01 -3.14814e+01 -6.36408e+01
       O  7.24488e+00 -4.97509e+01 -3.49352e+01
       H  9.07793e+00 -4.98104e+01 -3.48919e+01
       H  6.81993e+00 -4.91518e+01 -3.32056e+01
       O -1.66029e+01  9.18365e+01 -7.17933e+01
       H -1.53249e+01  9.29890e+01 -7.12026e+01
       H -1.73216e+01  9.09904e+01 -7.03520e+01
       O  7.81363e+01  5.05733e+00  1.98475e+01
       H  7.93889e+01  4.05895e+00  1.89252e+01
       H  7.72350e+01  6.19475e+00  1.88227e+01
       O  9.61355e+01  5.37624e+01 -1.41999e+01
       H  9.48607e+01  5.39937e+01 -1.54476e+01
       H  9.52943e+01  5.33286e+01 -1.26693e+01
       O  5.11473e+00  4.19820e+01  8.36432e-01
       H  3.28727e+00  4.24244e+01  7.68836e-01
       H  5.59211e+00  4.23941e+01  2.61119e+00
       O  1.45656e+01  2.42445e+00  6.52043e+01
       H  1.49794e+01  3.68129e+00  6.39659e+01
       H  1.46720e+01  8.69570e-01  6.41999e+01
       O  2.14941e+01  7.08428e+01 -7.04539e+01
       H  2.28487e+01  7.17667e+01 -7.12842e+01
       H  2.04782e+01  6.98230e+01 -7.16257e+01
       O  1.07891e+02 -2.86107e+01  4.23149e+01
       H  1.06701e+02 -2.94523e+01  4.33916e+01
       H  1.08998e+02 -2.98642e+01  4.16172e+01
       O -8.09555e+01  6.18946e+01  3.81219e+01
       H -8.19209e+01  6.25948e+01  3.95205e+01
       H -8.04262e+01  6.32231e+01  3.70101e+01
       O  4.63293e+01 -1.74976e+00  2.39103e+01
       H  4.54869e+01 -5.38214e-01  2.28556e+01
       H  4.49248e+01 -2.59265e+00  2.45038e+01
       O -1.05544e+01 -1.09107e+01  1.81621e+01
       H -1.14385e+01 -1.09977e+01  1.97077e+01
       H -1.09889e+01 -9.38051e+00  1.73065e+01
       O  3.92325e+01  9.78191e+00  1.55573e+01
       H  3.80148e+01  1.05311e+01  1.67033e+01
       H  3.86037e+01  8.03662e+00  1.49414e+01
       O  9.12811e+01 -2.04039e+01 -1.83267e+01
       H  9.28003e+01 -2.03255e+01 -1.71620e+01
       H  9.17006e+01 -2.15000e+01 -1.96521e+01
       O -8.33250e+00 -6.33581e+01  1.42219e+01
       H -9.59788e+00 -6.27722e+01  1.31722e+01
       H -7.50734e+00 -6.44778e+01  1.30424e+01
       O -7.97981e+01  3.11625e+01  6.91343e+01
       H -8.08615e+01  3.01529e+01  6.80302e+01
       H -7.95996e+01  3.01297e+01  7.05974e+01
       O  1.00953e+01 -4.50850e+01  1.53329e+01
       H  1.15050e+01 -4.61574e+01  1.58056e+01
       H  8.60325e+00 -4.61475e+01  1.52928e+01
       O -5.16363e+01  6.13540e+01 -1.02854e+01
       H -5.13664e+01  6.21832e+01 -8.66689e+00
       H -4.99615e+01  6.09455e+01 -1.07053e+01
       O  2.62207e+01  4.82374e+01  7.99686e+00
       H  2.60451e+01  4.78191e+01  9.76090e+00
       H  2.72649e+01  4.96832e+01  7.96455e+00
       O -7.26760e+01 -4.96150e+01 -2.02915e+01
       H -7.21161e+01 -5.12736e+01 -1.99482e+01
       H -7.29438e+01 -4.96040e+01 -2.19983e+01
       O  4.32103e+01 -3.89718e+01 -2.19127e+01
       H  4.22762e+01 -3.91153e+01 -2.35193e+01
       H  4.34927e+01 -4.04948e+01 -2.10890e+01
       O  1.36284e+01  1.95419e+01  7.05217e+01
       H  1.51230e+01  1.94143e+01  7.14290e+01
       H  1.35273e+01  2.11287e+01  6.99472e+01
       O -4.65243e+01  8.03471e+01  9.02838e+01
       H -4.48368e+01  8.03123e+01  8.95705e+01
       H -4.70611e+01  7.87195e+01  9.01907e+01
       O -3.51174e+01  1.42467e+02  1.01503e+02
       H -3.68073e+01  1.42627e+02  1.02211e+02
       H -3.47569e+01  1.40729e+02  1.01372e+02
       O  2.07001e+01 -1.45700e+00  4.07183e+01
       H  2.03741e+01 -1.74453e+00  3.89257e+01
       H  1.96336e+01 -2.63002e+00  4.15759e+01
       O  5.38893e+01  1.13156e+01 -1.45613e+01
       H  5.24597e+01  1.01831e+01 -1.45554e+01
       H  5.52232e+01  1.03626e+01 -1.53054e+01
       O  1.91740e+02 -2.90117e+01  1.99259e+01
       H  1.92918e+02 -2.97873e+01  2.09789e+01
       H  1.90743e+02 -2.81681e+01  2.11154e+01
       O -4.14819e+01 -3.08034e+01 -7.03707e+00
       H -4.10682e+01 -2.90913e+01 -7.29045e+00
       H -4.00603e+01 -3.18548e+01 -7.76845e+00
       O -4.12862e-01 -4.13017e+01 -2.99017e+01
       H  1.11824e+00 -4.08930e+01 -2.90724e+01
       H -4.62250e-01 -4.00850e+01 -3.12132e+01
       O  2.93509e+01 -1.87359e+01  8.21383e+01
       H  2.91320e+01 -1.74481e+01  8.34258e+01
       H  3.06769e+01 -1.98147e+01  8.27882e+01
       O  3.43554e+01 -6.85274e+01 -1.54291e+01
       H  3.55784e+01 -6.85576e+01 -1.68312e+01
       H  3.29443e+01 -6.95297e+01 -1.60898e+01
       O -3.23993e+01 -6.67393e+01 -6.73467e+01
       H -3.42318e+01 -6.69725e+01 -6.72922e+01
       H -3.19748e+01 -6.60948e+01 -6.90080e+01
       O -1.62627e+01  3.08536e+01  1.70009e+01
       H -1.73396e+01  3.17365e+01  1.81012e+01
       H -1.57399e+01  3.21411e+01  1.57252e+01
       O -4.43512e+01  5.43497e+01  2.75400e+01
       H -4.41619e+01  5.60650e+01  2.70900e+01
       H -4.58654e+01  5.38908e+01  2.65091e+01
       O -6.76500e+01  6.92561e+01 -1.02099e+01
       H -6.88105e+01  6.79812e+01 -1.04137e+01
       H -6.85060e+01  7.03912e+01 -9.16225e+00
       O -4.97563e+01  2.09596e+01 -9.94390e+00
       H -5.02748e+01  2.25803e+01 -1.06370e+01
       H -5.00064e+01  1.98244e+01 -1.13640e+01
       O  1.65640e+01  2.51603e+01  3.38374e+01
       H  1.79388e+01  2.59756e+01  3.29284e+01
       H  1.55756e+01  2.47107e+01  3.24267e+01
       O  8.23824e+00  2.43922e+01  1.62530e+02
       H  6.69817e+00  2.53155e+01  1.62701e+02
       H  7.91824e+00  2.29263e+01  1.63562e+02
       O -6.17358e+00 -2.22218e+01  5.11812e+01
       H -4.46317e+00 -2.19599e+01  5.06040e+01
       H -7.22978e+00 -2.16266e+01  4.98948e+01
       O -5.19486e+01  1.03921e+01 -9.00016e+01
       H -5.35017e+01  9.55018e+00 -9.03706e+01
       H -5.05454e+01  9.15402e+00 -9.01822e+01
       O  2.00028e+01  5.14813e+01  1.23341e+02
       H  1.96481e+01  5.32066e+01  1.23071e+02
       H  2.09131e+01  5.10773e+01  1.21870e+02
       O -7.95975e+00 -5.45023e+01  2.81083e+01
       H -7.48220e+00 -5.59959e+01  2.90810e+01
       H -7.56169e+00 -5.31585e+01  2.92348e+01
       O -1.74894e+01  2.10701e+01  8.37828e+01
       H -1.72990e+01  2.15526e+01  8.56052e+01
       H -1.87292e+01  2.22523e+01  8.30296e+01
       O  8.15631e+01  4.25540e+01 -1.14591e+01
       H  8.10903e+01  4.40768e+01 -1.23783e+01
       H  8.27112e+01  4.15542e+01 -1.24521e+01
       O  5.41779e+01 -3.41675e+01  6.92767e+01
       H  5.48871e+01 -3.28554e+01  7.03168e+01
       H  5.55148e+01 -3.53411e+01  6.92681e+01
       O -3.31123e+00  1.08555e+01  3.12290e+01
       H -2.73576e+00  1.16076e+01  2.96772e+01
       H -2.25119e+00  1.16208e+01  3.25284e+01
       O  1.63067e+02  1.94343e+01 -1.45487e+01
       H  1.62777e+02  2.11384e+01 -1.40660e+01
       H  1.64353e+02  1.86759e+01 -1.34847e+01
       O -6.50084e+01  5.93213e+01 -4.26945e+01
       H -6.34588e+01  5.83952e+01 -4.32040e+01
       H -6.47077e+01  6.09523e+01 -4.33818e+01
       O -7.00696e+01 -2.96879e+01  3.02178e+01
       H -6.99933e+01 -3.03385e+01  2.85927e+01
       H -6.84628e+01 -2.87813e+01  3.05560e+01
