1
CELL(abcABC):  200.000000 200.000000 200.000000 90.000000 90.000000 90.000000 cell{atomic_unit}  Traj: positions{atomic_unit}   Bead:       0
D -0.007326200706006197 -1.159976574373843e-22 -8.777321948616472e-25
1
CELL(abcABC):  200.000000 200.000000 200.000000 90.000000 90.000000 90.000000 cell{atomic_unit}  Traj: positions{atomic_unit}   Bead:       1
D -0.007241992673455008 -7.318817834288647e-23 -1.8331321078334203e-24
1
CELL(abcABC):  200.000000 200.000000 200.000000 90.000000 90.000000 90.000000 cell{atomic_unit}  Traj: positions{atomic_unit}   Bead:       2
D -0.006627688043190179 -2.4668331429710506e-22 1.783918073223289e-22
1
CELL(abcABC):  200.000000 200.000000 200.000000 90.000000 90.000000 90.000000 cell{atomic_unit}  Traj: positions{atomic_unit}   Bead:       3
D -0.004879789840997951 -6.49092977056396e-23 3.234771655833539e-23
1
CELL(abcABC):  200.000000 200.000000 200.000000 90.000000 90.000000 90.000000 cell{atomic_unit}  Traj: positions{atomic_unit}   Bead:       4
D -0.0018257582707856108 2.0608992095962627e-22 6.762598687386389e-24
1
CELL(abcABC):  200.000000 200.000000 200.000000 90.000000 90.000000 90.000000 cell{atomic_unit}  Traj: positions{atomic_unit}   Bead:       5
D 0.0018257582707856108 3.8924402753938085e-22 7.65882463849892e-24
1
CELL(abcABC):  200.000000 200.000000 200.000000 90.000000 90.000000 90.000000 cell{atomic_unit}  Traj: positions{atomic_unit}   Bead:       6
D 0.00487978984099795 -4.448388535687337e-22 -7.573757274884134e-24
1
CELL(abcABC):  200.000000 200.000000 200.000000 90.000000 90.000000 90.000000 cell{atomic_unit}  Traj: positions{atomic_unit}   Bead:       7
D 0.006627688043190179 1.7868220063545488e-22 2.002236258553886e-24
1
CELL(abcABC):  200.000000 200.000000 200.000000 90.000000 90.000000 90.000000 cell{atomic_unit}  Traj: positions{atomic_unit}   Bead:       8
D 0.007241992673455008 -3.633186953166768e-23 -6.367313446738073e-25
1
CELL(abcABC):  200.000000 200.000000 200.000000 90.000000 90.000000 90.000000 cell{atomic_unit}  Traj: positions{atomic_unit}   Bead:       9
D 0.007326200706006197 4.069589760516221e-24 1.5381788516389292e-25
