1
CELL(abcABC):  200.000000 200.000000 200.000000 90.000000 90.000000 90.000000 cell{atomic_unit}  Traj: positions{angstrom}   Bead:       0
D -0.609461931780188 1.1137272420846299e-22 8.427362054271108e-25
1
CELL(abcABC):  200.000000 200.000000 200.000000 90.000000 90.000000 90.000000 cell{atomic_unit}  Traj: positions{angstrom}   Bead:       1
D -0.5557417708222971 7.027009839661728e-23 1.7600434456498942e-24
1
CELL(abcABC):  200.000000 200.000000 200.000000 90.000000 90.000000 90.000000 cell{atomic_unit}  Traj: positions{angstrom}   Bead:       2
D -0.4489189134472901 2.3684782380085104e-22 -1.712791619837993e-22
1
CELL(abcABC):  200.000000 200.000000 200.000000 90.000000 90.000000 90.000000 cell{atomic_unit}  Traj: positions{angstrom}   Bead:       3
D -0.2934978149735784 6.232130434045628e-23 -3.1057983364618696e-23
1
CELL(abcABC):  200.000000 200.000000 200.000000 90.000000 90.000000 90.000000 cell{atomic_unit}  Traj: positions{angstrom}   Bead:       4
D -0.10229512847387665 -1.9787292636983076e-22 -6.492967661431954e-24
1
CELL(abcABC):  200.000000 200.000000 200.000000 90.000000 90.000000 90.000000 cell{atomic_unit}  Traj: positions{angstrom}   Bead:       5
D 0.10229512847387665 -3.7372451036208094e-22 -7.353460260048473e-24
1
CELL(abcABC):  200.000000 200.000000 200.000000 90.000000 90.000000 90.000000 cell{atomic_unit}  Traj: positions{angstrom}   Bead:       6
D 0.29349781497357835 4.271027195739947e-22 7.271784610416283e-24
1
CELL(abcABC):  200.000000 200.000000 200.000000 90.000000 90.000000 90.000000 cell{atomic_unit}  Traj: positions{angstrom}   Bead:       7
D 0.44891891344729007 -1.715579770485968e-22 -1.9224052584379088e-24
1
CELL(abcABC):  200.000000 200.000000 200.000000 90.000000 90.000000 90.000000 cell{atomic_unit}  Traj: positions{angstrom}   Bead:       8
D 0.5557417708222971 3.488328449660741e-23 6.113442806680771e-25
1
CELL(abcABC):  200.000000 200.000000 200.000000 90.000000 90.000000 90.000000 cell{atomic_unit}  Traj: positions{angstrom}   Bead:       9
D 0.609461931780188 -3.9073314759327645e-24 -1.4768502469056048e-25
