1
CELL(abcABC):  300.000000 300.000000 300.000000 90.000000 90.000000 90.000000 cell{atomic_unit}  Traj: positions{angstrom}   Bead:       0
H -0.5901404982879411 9.078171236931236e-22 6.293685049475745e-22
1
CELL(abcABC):  300.000000 300.000000 300.000000 90.000000 90.000000 90.000000 cell{atomic_unit}  Traj: positions{angstrom}   Bead:       1
H -0.5896153278995013 1.2866086548722858e-21 5.023012781540679e-22
1
CELL(abcABC):  300.000000 300.000000 300.000000 90.000000 90.000000 90.000000 cell{atomic_unit}  Traj: positions{angstrom}   Bead:       2
H -0.5885650310882056 6.529591162963341e-22 6.277408681626339e-22
1
CELL(abcABC):  300.000000 300.000000 300.000000 90.000000 90.000000 90.000000 cell{atomic_unit}  Traj: positions{angstrom}   Bead:       3
H -0.5869896991727866 7.774326123103429e-22 3.734651780874192e-22
1
CELL(abcABC):  300.000000 300.000000 300.000000 90.000000 90.000000 90.000000 cell{atomic_unit}  Traj: positions{angstrom}   Bead:       4
H -0.5848894775834099 7.750983361174401e-22 3.717480805857778e-22
1
CELL(abcABC):  300.000000 300.000000 300.000000 90.000000 90.000000 90.000000 cell{atomic_unit}  Traj: positions{angstrom}   Bead:       5
H -0.5822645759567958 1.4024445862453065e-22 1.0018945336108896e-21
1
CELL(abcABC):  300.000000 300.000000 300.000000 90.000000 90.000000 90.000000 cell{atomic_unit}  Traj: positions{angstrom}   Bead:       6
H -0.5791152815169126 -1.1509174656504585e-22 1.0628948683716586e-21
1
CELL(abcABC):  300.000000 300.000000 300.000000 90.000000 90.000000 90.000000 cell{atomic_unit}  Traj: positions{angstrom}   Bead:       7
H -0.5754419756720506 -5.599427326751646e-22 1.124123259166436e-21
1
CELL(abcABC):  300.000000 300.000000 300.000000 90.000000 90.000000 90.000000 cell{atomic_unit}  Traj: positions{angstrom}   Bead:       8
H -0.5712451537405001 -1.0677203968860183e-21 1.8812609489438318e-21
1
CELL(abcABC):  300.000000 300.000000 300.000000 90.000000 90.000000 90.000000 cell{atomic_unit}  Traj: positions{angstrom}   Bead:       9
H -0.5665254476976629 -1.6387423040237152e-21 1.8803978855717054e-21
1
CELL(abcABC):  300.000000 300.000000 300.000000 90.000000 90.000000 90.000000 cell{atomic_unit}  Traj: positions{angstrom}   Bead:       10
H -0.56128365181714 -1.1345697433927864e-21 1.4380623125476375e-21
1
CELL(abcABC):  300.000000 300.000000 300.000000 90.000000 90.000000 90.000000 cell{atomic_unit}  Traj: positions{angstrom}   Bead:       11
H -0.5555207510570968 -5.795817153549597e-22 1.65155269196155e-21
1
CELL(abcABC):  300.000000 300.000000 300.000000 90.000000 90.000000 90.000000 cell{atomic_unit}  Traj: positions{angstrom}   Bead:       12
H -0.5492379520209874 -6.889591856916204e-22 1.2362054845429122e-21
1
CELL(abcABC):  300.000000 300.000000 300.000000 90.000000 90.000000 90.000000 cell{atomic_unit}  Traj: positions{angstrom}   Bead:       13
H -0.5424367162985383 -7.298499448253081e-22 7.734282288368197e-22
1
CELL(abcABC):  300.000000 300.000000 300.000000 90.000000 90.000000 90.000000 cell{atomic_unit}  Traj: positions{angstrom}   Bead:       14
H -0.535118795968839 -7.344669477126578e-22 5.925491131391912e-22
1
CELL(abcABC):  300.000000 300.000000 300.000000 90.000000 90.000000 90.000000 cell{atomic_unit}  Traj: positions{angstrom}   Bead:       15
H -0.5272862710225651 -7.244341078573068e-22 4.479458042712707e-22
1
CELL(abcABC):  300.000000 300.000000 300.000000 90.000000 90.000000 90.000000 cell{atomic_unit}  Traj: positions{angstrom}   Bead:       16
H -0.5189415884349686 -7.53824276606815e-22 3.738613171504953e-22
1
CELL(abcABC):  300.000000 300.000000 300.000000 90.000000 90.000000 90.000000 cell{atomic_unit}  Traj: positions{angstrom}   Bead:       17
H -0.5100876025955496 -7.192294294294663e-22 2.8313640914080497e-22
1
CELL(abcABC):  300.000000 300.000000 300.000000 90.000000 90.000000 90.000000 cell{atomic_unit}  Traj: positions{angstrom}   Bead:       18
H -0.5007276167745547 -7.621240681498184e-22 2.1712556186352577e-22
1
CELL(abcABC):  300.000000 300.000000 300.000000 90.000000 90.000000 90.000000 cell{atomic_unit}  Traj: positions{angstrom}   Bead:       19
H -0.4908654252810247 -9.387733883638061e-22 2.1919979967939335e-22
1
CELL(abcABC):  300.000000 300.000000 300.000000 90.000000 90.000000 90.000000 cell{atomic_unit}  Traj: positions{angstrom}   Bead:       20
H -0.48050535594242594 -1.2545921331115598e-21 1.4826977305371833e-22
1
CELL(abcABC):  300.000000 300.000000 300.000000 90.000000 90.000000 90.000000 cell{atomic_unit}  Traj: positions{angstrom}   Bead:       21
H -0.4696523125124343 -1.3511651025053312e-21 7.681547538262432e-23
1
CELL(abcABC):  300.000000 300.000000 300.000000 90.000000 90.000000 90.000000 cell{atomic_unit}  Traj: positions{angstrom}   Bead:       22
H -0.4583118165917232 -1.2110043182672653e-21 -5.293536913153761e-22
1
CELL(abcABC):  300.000000 300.000000 300.000000 90.000000 90.000000 90.000000 cell{atomic_unit}  Traj: positions{angstrom}   Bead:       23
H -0.44649004862719316 -1.34287432389378e-21 -5.983768884459103e-22
1
CELL(abcABC):  300.000000 300.000000 300.000000 90.000000 90.000000 90.000000 cell{atomic_unit}  Traj: positions{angstrom}   Bead:       24
H -0.4341938875385743 -1.208074286670725e-21 -5.571236513726097e-22
1
CELL(abcABC):  300.000000 300.000000 300.000000 90.000000 90.000000 90.000000 cell{atomic_unit}  Traj: positions{angstrom}   Bead:       25
H -0.4214309485083544 -1.0442755860130991e-21 -5.559953945451195e-22
1
CELL(abcABC):  300.000000 300.000000 300.000000 90.000000 90.000000 90.000000 cell{atomic_unit}  Traj: positions{angstrom}   Bead:       26
H -0.40820961846214915 -6.762818153316965e-22 -3.0192562080632025e-22
1
CELL(abcABC):  300.000000 300.000000 300.000000 90.000000 90.000000 90.000000 cell{atomic_unit}  Traj: positions{angstrom}   Bead:       27
H -0.3945390887625667 -7.98826608993858e-22 -3.703240496177591e-22
1
CELL(abcABC):  300.000000 300.000000 300.000000 90.000000 90.000000 90.000000 cell{atomic_unit}  Traj: positions{angstrom}   Bead:       28
H -0.38042938464090115 -1.3050472048110144e-21 4.671328534646483e-24
1
CELL(abcABC):  300.000000 300.000000 300.000000 90.000000 90.000000 90.000000 cell{atomic_unit}  Traj: positions{angstrom}   Bead:       29
H -0.36589139089817385 -1.5884655903959865e-21 5.240969031306547e-22
1
CELL(abcABC):  300.000000 300.000000 300.000000 90.000000 90.000000 90.000000 cell{atomic_unit}  Traj: positions{angstrom}   Bead:       30
H -0.35093687342059227 -1.0109759377743193e-21 1.3778337807389472e-21
1
CELL(abcABC):  300.000000 300.000000 300.000000 90.000000 90.000000 90.000000 cell{atomic_unit}  Traj: positions{angstrom}   Bead:       31
H -0.33557849607481605 -1.5428480006423429e-21 1.3906639517016432e-21
1
CELL(abcABC):  300.000000 300.000000 300.000000 90.000000 90.000000 90.000000 cell{atomic_unit}  Traj: positions{angstrom}   Bead:       32
H -0.319829832575779 -1.8432156383109948e-21 9.840021012558533e-22
1
CELL(abcABC):  300.000000 300.000000 300.000000 90.000000 90.000000 90.000000 cell{atomic_unit}  Traj: positions{angstrom}   Bead:       33
H -0.30370537295438255 -1.3439096977545212e-21 8.025637600274184e-22
1
CELL(abcABC):  300.000000 300.000000 300.000000 90.000000 90.000000 90.000000 cell{atomic_unit}  Traj: positions{angstrom}   Bead:       34
H -0.2872205242941564 -1.052876004924979e-21 5.786087945403629e-22
1
CELL(abcABC):  300.000000 300.000000 300.000000 90.000000 90.000000 90.000000 cell{atomic_unit}  Traj: positions{angstrom}   Bead:       35
H -0.2703916054548367 -7.621592281472511e-22 4.810453412353864e-22
1
CELL(abcABC):  300.000000 300.000000 300.000000 90.000000 90.000000 90.000000 cell{atomic_unit}  Traj: positions{angstrom}   Bead:       36
H -0.2532358355564187 -5.276235121776751e-22 3.3305038477956576e-22
1
CELL(abcABC):  300.000000 300.000000 300.000000 90.000000 90.000000 90.000000 cell{atomic_unit}  Traj: positions{angstrom}   Bead:       37
H -0.23577131605912155 -4.59677524893803e-22 2.730303074098951e-22
1
CELL(abcABC):  300.000000 300.000000 300.000000 90.000000 90.000000 90.000000 cell{atomic_unit}  Traj: positions{angstrom}   Bead:       38
H -0.21801700634217108 -3.93235413783964e-22 1.7831918944804414e-22
1
CELL(abcABC):  300.000000 300.000000 300.000000 90.000000 90.000000 90.000000 cell{atomic_unit}  Traj: positions{angstrom}   Bead:       39
H -0.19999269275653322 -3.051778247677056e-22 1.642816385319269e-22
1
CELL(abcABC):  300.000000 300.000000 300.000000 90.000000 90.000000 90.000000 cell{atomic_unit}  Traj: positions{angstrom}   Bead:       40
H -0.18171895120269282 -2.536897475288539e-22 1.1076604016901196e-22
1
CELL(abcABC):  300.000000 300.000000 300.000000 90.000000 90.000000 90.000000 cell{atomic_unit}  Traj: positions{angstrom}   Bead:       41
H -0.16321710336311532 -1.6987014071980392e-22 5.612895829552308e-23
1
CELL(abcABC):  300.000000 300.000000 300.000000 90.000000 90.000000 90.000000 cell{atomic_unit}  Traj: positions{angstrom}   Bead:       42
H -0.14450916679885872 -1.2519907077986792e-22 3.806956098962501e-23
1
CELL(abcABC):  300.000000 300.000000 300.000000 90.000000 90.000000 90.000000 cell{atomic_unit}  Traj: positions{angstrom}   Bead:       43
H -0.1256177991995281 -1.2114133326823013e-22 1.1952632674006422e-22
1
CELL(abcABC):  300.000000 300.000000 300.000000 90.000000 90.000000 90.000000 cell{atomic_unit}  Traj: positions{angstrom}   Bead:       44
H -0.10656623715392201 -9.779458190080445e-23 1.4980169778735957e-22
1
CELL(abcABC):  300.000000 300.000000 300.000000 90.000000 90.000000 90.000000 cell{atomic_unit}  Traj: positions{angstrom}   Bead:       45
H -0.08737822988381534 -1.2044367593268231e-22 1.212664662764945e-22
1
CELL(abcABC):  300.000000 300.000000 300.000000 90.000000 90.000000 90.000000 cell{atomic_unit}  Traj: positions{angstrom}   Bead:       46
H -0.06807796845386276 -6.465680392826937e-23 1.531228548028866e-22
1
CELL(abcABC):  300.000000 300.000000 300.000000 90.000000 90.000000 90.000000 cell{atomic_unit}  Traj: positions{angstrom}   Bead:       47
H -0.048690011035153025 2.0796583818062603e-23 7.106583608649648e-23
1
CELL(abcABC):  300.000000 300.000000 300.000000 90.000000 90.000000 90.000000 cell{atomic_unit}  Traj: positions{angstrom}   Bead:       48
H -0.029239204857137654 -1.6502609864676455e-23 -6.089664139329361e-25
1
CELL(abcABC):  300.000000 300.000000 300.000000 90.000000 90.000000 90.000000 cell{atomic_unit}  Traj: positions{angstrom}   Bead:       49
H -0.009750605531276435 1.5946029444127188e-24 -6.866000390598732e-23
1
CELL(abcABC):  300.000000 300.000000 300.000000 90.000000 90.000000 90.000000 cell{atomic_unit}  Traj: positions{angstrom}   Bead:       50
H 0.009750605531276435 2.846881895696057e-23 -1.046358989141541e-23
1
CELL(abcABC):  300.000000 300.000000 300.000000 90.000000 90.000000 90.000000 cell{atomic_unit}  Traj: positions{angstrom}   Bead:       51
H 0.02923920485713765 -9.811280772136615e-24 -6.857039036515236e-23
1
CELL(abcABC):  300.000000 300.000000 300.000000 90.000000 90.000000 90.000000 cell{atomic_unit}  Traj: positions{angstrom}   Bead:       52
H 0.048690011035153025 1.2340909165120575e-23 -6.130089970957646e-23
1
CELL(abcABC):  300.000000 300.000000 300.000000 90.000000 90.000000 90.000000 cell{atomic_unit}  Traj: positions{angstrom}   Bead:       53
H 0.06807796845386276 6.3127614270763944e-24 -7.498161057913146e-23
1
CELL(abcABC):  300.000000 300.000000 300.000000 90.000000 90.000000 90.000000 cell{atomic_unit}  Traj: positions{angstrom}   Bead:       54
H 0.08737822988381533 -1.3898874091803341e-23 -3.06616359193808e-23
1
CELL(abcABC):  300.000000 300.000000 300.000000 90.000000 90.000000 90.000000 cell{atomic_unit}  Traj: positions{angstrom}   Bead:       55
H 0.10656623715392201 2.750288803410218e-23 -6.641425189193571e-23
1
CELL(abcABC):  300.000000 300.000000 300.000000 90.000000 90.000000 90.000000 cell{atomic_unit}  Traj: positions{angstrom}   Bead:       56
H 0.1256177991995281 -4.821718713639728e-24 -7.224919518069643e-23
1
CELL(abcABC):  300.000000 300.000000 300.000000 90.000000 90.000000 90.000000 cell{atomic_unit}  Traj: positions{angstrom}   Bead:       57
H 0.1445091667988587 -1.142645392708382e-24 -3.0958655085810805e-23
1
CELL(abcABC):  300.000000 300.000000 300.000000 90.000000 90.000000 90.000000 cell{atomic_unit}  Traj: positions{angstrom}   Bead:       58
H 0.16321710336311532 5.0709165663305964e-23 4.3574525625981346e-23
1
CELL(abcABC):  300.000000 300.000000 300.000000 90.000000 90.000000 90.000000 cell{atomic_unit}  Traj: positions{angstrom}   Bead:       59
H 0.18171895120269282 2.2399088595170758e-23 3.3673999426163784e-23
1
CELL(abcABC):  300.000000 300.000000 300.000000 90.000000 90.000000 90.000000 cell{atomic_unit}  Traj: positions{angstrom}   Bead:       60
H 0.19999269275653322 2.025403703330705e-23 5.977648827509924e-23
1
CELL(abcABC):  300.000000 300.000000 300.000000 90.000000 90.000000 90.000000 cell{atomic_unit}  Traj: positions{angstrom}   Bead:       61
H 0.21801700634217108 1.8401207704997608e-23 1.2671129947827866e-22
1
CELL(abcABC):  300.000000 300.000000 300.000000 90.000000 90.000000 90.000000 cell{atomic_unit}  Traj: positions{angstrom}   Bead:       62
H 0.23577131605912155 -3.1600449610246217e-23 -1.1057875462816284e-23
1
CELL(abcABC):  300.000000 300.000000 300.000000 90.000000 90.000000 90.000000 cell{atomic_unit}  Traj: positions{angstrom}   Bead:       63
H 0.2532358355564187 -3.8589020674022465e-24 -1.964638994903192e-23
1
CELL(abcABC):  300.000000 300.000000 300.000000 90.000000 90.000000 90.000000 cell{atomic_unit}  Traj: positions{angstrom}   Bead:       64
H 0.2703916054548367 2.0742079879214607e-23 -1.6999452077870684e-23
1
CELL(abcABC):  300.000000 300.000000 300.000000 90.000000 90.000000 90.000000 cell{atomic_unit}  Traj: positions{angstrom}   Bead:       65
H 0.2872205242941564 -1.4532201351163465e-23 -4.20284135030566e-24
1
CELL(abcABC):  300.000000 300.000000 300.000000 90.000000 90.000000 90.000000 cell{atomic_unit}  Traj: positions{angstrom}   Bead:       66
H 0.30370537295438255 -4.0297587403150335e-23 -8.15965218056878e-23
1
CELL(abcABC):  300.000000 300.000000 300.000000 90.000000 90.000000 90.000000 cell{atomic_unit}  Traj: positions{angstrom}   Bead:       67
H 0.319829832575779 -4.6010969430988735e-23 -3.8252822631613477e-23
1
CELL(abcABC):  300.000000 300.000000 300.000000 90.000000 90.000000 90.000000 cell{atomic_unit}  Traj: positions{angstrom}   Bead:       68
H 0.33557849607481605 -3.2816533606603693e-23 -4.11525797886767e-23
1
CELL(abcABC):  300.000000 300.000000 300.000000 90.000000 90.000000 90.000000 cell{atomic_unit}  Traj: positions{angstrom}   Bead:       69
H 0.35093687342059227 -7.327962334377538e-24 4.859030104942728e-23
1
CELL(abcABC):  300.000000 300.000000 300.000000 90.000000 90.000000 90.000000 cell{atomic_unit}  Traj: positions{angstrom}   Bead:       70
H 0.36589139089817385 -2.1507244016579004e-23 1.486140693211683e-23
1
CELL(abcABC):  300.000000 300.000000 300.000000 90.000000 90.000000 90.000000 cell{atomic_unit}  Traj: positions{angstrom}   Bead:       71
H 0.38042938464090115 -2.3681469158254017e-23 5.656765180167993e-23
1
CELL(abcABC):  300.000000 300.000000 300.000000 90.000000 90.000000 90.000000 cell{atomic_unit}  Traj: positions{angstrom}   Bead:       72
H 0.3945390887625667 1.5191135799738723e-23 3.982719926304124e-23
1
CELL(abcABC):  300.000000 300.000000 300.000000 90.000000 90.000000 90.000000 cell{atomic_unit}  Traj: positions{angstrom}   Bead:       73
H 0.40820961846214915 4.309461001364038e-23 3.544254052442535e-23
1
CELL(abcABC):  300.000000 300.000000 300.000000 90.000000 90.000000 90.000000 cell{atomic_unit}  Traj: positions{angstrom}   Bead:       74
H 0.4214309485083544 1.4720924658550932e-23 3.2343895160892695e-23
1
CELL(abcABC):  300.000000 300.000000 300.000000 90.000000 90.000000 90.000000 cell{atomic_unit}  Traj: positions{angstrom}   Bead:       75
H 0.4341938875385743 -2.308980347930464e-23 3.626930297389299e-23
1
CELL(abcABC):  300.000000 300.000000 300.000000 90.000000 90.000000 90.000000 cell{atomic_unit}  Traj: positions{angstrom}   Bead:       76
H 0.44649004862719316 -1.6864083191547813e-23 3.6626453603868835e-23
1
CELL(abcABC):  300.000000 300.000000 300.000000 90.000000 90.000000 90.000000 cell{atomic_unit}  Traj: positions{angstrom}   Bead:       77
H 0.4583118165917232 -2.2787662209632912e-23 -2.8349674953641277e-23
1
CELL(abcABC):  300.000000 300.000000 300.000000 90.000000 90.000000 90.000000 cell{atomic_unit}  Traj: positions{angstrom}   Bead:       78
H 0.4696523125124343 -1.9437623934742368e-23 -2.2407259203917332e-23
1
CELL(abcABC):  300.000000 300.000000 300.000000 90.000000 90.000000 90.000000 cell{atomic_unit}  Traj: positions{angstrom}   Bead:       79
H 0.48050535594242594 6.413559495839694e-24 -7.689521351882469e-23
1
CELL(abcABC):  300.000000 300.000000 300.000000 90.000000 90.000000 90.000000 cell{atomic_unit}  Traj: positions{angstrom}   Bead:       80
H 0.4908654252810247 2.6747023488952534e-23 -5.0495142707911955e-23
1
CELL(abcABC):  300.000000 300.000000 300.000000 90.000000 90.000000 90.000000 cell{atomic_unit}  Traj: positions{angstrom}   Bead:       81
H 0.5007276167745547 1.8756329765469694e-23 -7.026493050240111e-23
1
CELL(abcABC):  300.000000 300.000000 300.000000 90.000000 90.000000 90.000000 cell{atomic_unit}  Traj: positions{angstrom}   Bead:       82
H 0.5100876025955496 5.0171596091920777e-23 3.454768012239971e-23
1
CELL(abcABC):  300.000000 300.000000 300.000000 90.000000 90.000000 90.000000 cell{atomic_unit}  Traj: positions{angstrom}   Bead:       83
H 0.5189415884349686 2.062818358080441e-23 -4.142386834280639e-23
1
CELL(abcABC):  300.000000 300.000000 300.000000 90.000000 90.000000 90.000000 cell{atomic_unit}  Traj: positions{angstrom}   Bead:       84
H 0.5272862710225651 2.1909769809934063e-23 1.5842507337568664e-23
1
CELL(abcABC):  300.000000 300.000000 300.000000 90.000000 90.000000 90.000000 cell{atomic_unit}  Traj: positions{angstrom}   Bead:       85
H 0.535118795968839 9.412658650895201e-24 -2.135897607914458e-23
1
CELL(abcABC):  300.000000 300.000000 300.000000 90.000000 90.000000 90.000000 cell{atomic_unit}  Traj: positions{angstrom}   Bead:       86
H 0.5424367162985383 -7.845876198672925e-24 8.033541268175241e-23
1
CELL(abcABC):  300.000000 300.000000 300.000000 90.000000 90.000000 90.000000 cell{atomic_unit}  Traj: positions{angstrom}   Bead:       87
H 0.5492379520209874 -2.677081188838481e-23 -1.7832690173305788e-24
1
CELL(abcABC):  300.000000 300.000000 300.000000 90.000000 90.000000 90.000000 cell{atomic_unit}  Traj: positions{angstrom}   Bead:       88
H 0.5555207510570968 -4.243624007903766e-24 6.157534609296761e-23
1
CELL(abcABC):  300.000000 300.000000 300.000000 90.000000 90.000000 90.000000 cell{atomic_unit}  Traj: positions{angstrom}   Bead:       89
H 0.56128365181714 -5.465120125983879e-23 -1.2081617584710881e-23
1
CELL(abcABC):  300.000000 300.000000 300.000000 90.000000 90.000000 90.000000 cell{atomic_unit}  Traj: positions{angstrom}   Bead:       90
H 0.5665254476976629 -1.0687728980147612e-23 3.758002455147056e-23
1
CELL(abcABC):  300.000000 300.000000 300.000000 90.000000 90.000000 90.000000 cell{atomic_unit}  Traj: positions{angstrom}   Bead:       91
H 0.5712451537405001 2.9195032577259055e-24 -3.2255290759134977e-23
1
CELL(abcABC):  300.000000 300.000000 300.000000 90.000000 90.000000 90.000000 cell{atomic_unit}  Traj: positions{angstrom}   Bead:       92
H 0.5754419756720506 4.506476578258912e-24 -5.221743022277905e-25
1
CELL(abcABC):  300.000000 300.000000 300.000000 90.000000 90.000000 90.000000 cell{atomic_unit}  Traj: positions{angstrom}   Bead:       93
H 0.5791152815169126 1.1518615589547894e-23 -5.154921569323275e-23
1
CELL(abcABC):  300.000000 300.000000 300.000000 90.000000 90.000000 90.000000 cell{atomic_unit}  Traj: positions{angstrom}   Bead:       94
H 0.5822645759567958 2.0022460511670837e-23 9.731546479347984e-24
1
CELL(abcABC):  300.000000 300.000000 300.000000 90.000000 90.000000 90.000000 cell{atomic_unit}  Traj: positions{angstrom}   Bead:       95
H 0.5848894775834099 -1.679909005808942e-23 -1.0836924352678114e-23
1
CELL(abcABC):  300.000000 300.000000 300.000000 90.000000 90.000000 90.000000 cell{atomic_unit}  Traj: positions{angstrom}   Bead:       96
H 0.5869896991727866 2.0256084798357683e-23 2.769778629461784e-23
1
CELL(abcABC):  300.000000 300.000000 300.000000 90.000000 90.000000 90.000000 cell{atomic_unit}  Traj: positions{angstrom}   Bead:       97
H 0.5885650310882056 5.97465778776041e-24 -1.4941619906348795e-23
1
CELL(abcABC):  300.000000 300.000000 300.000000 90.000000 90.000000 90.000000 cell{atomic_unit}  Traj: positions{angstrom}   Bead:       98
H 0.5896153278995013 -1.7999381347411395e-23 -5.3086573109531675e-24
1
CELL(abcABC):  300.000000 300.000000 300.000000 90.000000 90.000000 90.000000 cell{atomic_unit}  Traj: positions{angstrom}   Bead:       99
H 0.5901404982879411 6.106974122370453e-24 1.0192627560582765e-23
