4
CELL(abcABC):  200.000000 200.000000 200.000000 90.000000 90.000000 90.000000 cell{atomic_unit}  Traj: positions{angstrom}   Bead:       0
H -0.00020828987433177518 -3.132024054963316e-05 -0.00010373841977363067
H -1.1482563398483527e-05 -4.0450718559763076e-05 6.9828226514060985e-06
H -1.7854989936526448e-05 -5.2907346579784884e-05 0.0044837561906516665
H -2.4088385141952802e-05 -7.169246949173697e-05 0.010468004133399857
