172
# CELL(abcABC):   39.11500    39.11500    39.11500    90.00000    90.00000    90.00000  positions{atomic_unit}  cell{atomic_unit}
      H2  0.00000e+00  0.00000e+00  0.00000e+00
      H2  5.58200e+00  5.58200e+00  0.00000e+00
      H2  5.58200e+00  0.00000e+00  5.58200e+00
      H2  0.00000e+00  5.58200e+00  5.58200e+00
      H2  0.00000e+00  0.00000e+00  1.11650e+01
      H2  5.58200e+00  5.58200e+00  1.11650e+01
      H2  5.58200e+00  0.00000e+00  1.67470e+01
      H2  0.00000e+00  5.58200e+00  1.67470e+01
      H2  0.00000e+00  0.00000e+00  2.23300e+01
      H2  5.58200e+00  5.58200e+00  2.23300e+01
      H2  5.58200e+00  0.00000e+00  2.79120e+01
      H2  0.00000e+00  5.58200e+00  2.79120e+01
      H2  0.00000e+00  0.00000e+00  3.34950e+01
      H2  5.58200e+00  5.58200e+00  3.34950e+01
      H2  0.00000e+00  1.11650e+01  0.00000e+00
      H2  5.58200e+00  1.67470e+01  0.00000e+00
      H2  5.58200e+00  1.11650e+01  5.58200e+00
      H2  0.00000e+00  1.67470e+01  5.58200e+00
      H2  0.00000e+00  1.11650e+01  1.11650e+01
      H2  5.58200e+00  1.67470e+01  1.11650e+01
      H2  5.58200e+00  1.11650e+01  1.67470e+01
      H2  0.00000e+00  1.67470e+01  1.67470e+01
      H2  0.00000e+00  1.11650e+01  2.23300e+01
      H2  5.58200e+00  1.67470e+01  2.23300e+01
      H2  5.58200e+00  1.11650e+01  2.79120e+01
      H2  0.00000e+00  1.67470e+01  2.79120e+01
      H2  0.00000e+00  1.11650e+01  3.34950e+01
      H2  5.58200e+00  1.67470e+01  3.34950e+01
      H2  0.00000e+00  2.23300e+01  0.00000e+00
      H2  5.58200e+00  2.79120e+01  0.00000e+00
      H2  5.58200e+00  2.23300e+01  5.58200e+00
      H2  0.00000e+00  2.79120e+01  5.58200e+00
      H2  0.00000e+00  2.23300e+01  1.11650e+01
      H2  5.58200e+00  2.79120e+01  1.11650e+01
      H2  5.58200e+00  2.23300e+01  1.67470e+01
      H2  0.00000e+00  2.79120e+01  1.67470e+01
      H2  0.00000e+00  2.23300e+01  2.23300e+01
      H2  5.58200e+00  2.79120e+01  2.23300e+01
      H2  5.58200e+00  2.23300e+01  2.79120e+01
      H2  0.00000e+00  2.79120e+01  2.79120e+01
      H2  0.00000e+00  2.23300e+01  3.34950e+01
      H2  5.58200e+00  2.79120e+01  3.34950e+01
      H2  0.00000e+00  3.34950e+01  0.00000e+00
      H2  5.58200e+00  3.34950e+01  5.58200e+00
      H2  0.00000e+00  3.34950e+01  1.11650e+01
      H2  5.58200e+00  3.34950e+01  1.67470e+01
      H2  0.00000e+00  3.34950e+01  2.23300e+01
      H2  5.58200e+00  3.34950e+01  2.79120e+01
      H2  0.00000e+00  3.34950e+01  3.34950e+01
      H2  1.11650e+01  0.00000e+00  0.00000e+00
      H2  1.67470e+01  5.58200e+00  0.00000e+00
      H2  1.67470e+01  0.00000e+00  5.58200e+00
      H2  1.11650e+01  5.58200e+00  5.58200e+00
      H2  1.11650e+01  0.00000e+00  1.11650e+01
      H2  1.67470e+01  5.58200e+00  1.11650e+01
      H2  1.67470e+01  0.00000e+00  1.67470e+01
      H2  1.11650e+01  5.58200e+00  1.67470e+01
      H2  1.11650e+01  0.00000e+00  2.23300e+01
      H2  1.67470e+01  5.58200e+00  2.23300e+01
      H2  1.67470e+01  0.00000e+00  2.79120e+01
      H2  1.11650e+01  5.58200e+00  2.79120e+01
      H2  1.11650e+01  0.00000e+00  3.34950e+01
      H2  1.67470e+01  5.58200e+00  3.34950e+01
      H2  1.11650e+01  1.11650e+01  0.00000e+00
      H2  1.67470e+01  1.67470e+01  0.00000e+00
      H2  1.67470e+01  1.11650e+01  5.58200e+00
      H2  1.11650e+01  1.67470e+01  5.58200e+00
      H2  1.11650e+01  1.11650e+01  1.11650e+01
      H2  1.67470e+01  1.67470e+01  1.11650e+01
      H2  1.67470e+01  1.11650e+01  1.67470e+01
      H2  1.11650e+01  1.67470e+01  1.67470e+01
      H2  1.11650e+01  1.11650e+01  2.23300e+01
      H2  1.67470e+01  1.67470e+01  2.23300e+01
      H2  1.67470e+01  1.11650e+01  2.79120e+01
      H2  1.11650e+01  1.67470e+01  2.79120e+01
      H2  1.11650e+01  1.11650e+01  3.34950e+01
      H2  1.67470e+01  1.67470e+01  3.34950e+01
      H2  1.11650e+01  2.23300e+01  0.00000e+00
      H2  1.67470e+01  2.79120e+01  0.00000e+00
      H2  1.67470e+01  2.23300e+01  5.58200e+00
      H2  1.11650e+01  2.79120e+01  5.58200e+00
      H2  1.11650e+01  2.23300e+01  1.11650e+01
      H2  1.67470e+01  2.79120e+01  1.11650e+01
      H2  1.67470e+01  2.23300e+01  1.67470e+01
      H2  1.11650e+01  2.79120e+01  1.67470e+01
      H2  1.11650e+01  2.23300e+01  2.23300e+01
      H2  1.67470e+01  2.79120e+01  2.23300e+01
      H2  1.67470e+01  2.23300e+01  2.79120e+01
      H2  1.11650e+01  2.79120e+01  2.79120e+01
      H2  1.11650e+01  2.23300e+01  3.34950e+01
      H2  1.67470e+01  2.79120e+01  3.34950e+01
      H2  1.11650e+01  3.34950e+01  0.00000e+00
      H2  1.67470e+01  3.34950e+01  5.58200e+00
      H2  1.11650e+01  3.34950e+01  1.11650e+01
      H2  1.67470e+01  3.34950e+01  1.67470e+01
      H2  1.11650e+01  3.34950e+01  2.23300e+01
      H2  1.67470e+01  3.34950e+01  2.79120e+01
      H2  1.11650e+01  3.34950e+01  3.34950e+01
      H2  2.23300e+01  0.00000e+00  0.00000e+00
      H2  2.79120e+01  5.58200e+00  0.00000e+00
      H2  2.79120e+01  0.00000e+00  5.58200e+00
      H2  2.23300e+01  5.58200e+00  5.58200e+00
      H2  2.23300e+01  0.00000e+00  1.11650e+01
      H2  2.79120e+01  5.58200e+00  1.11650e+01
      H2  2.79120e+01  0.00000e+00  1.67470e+01
      H2  2.23300e+01  5.58200e+00  1.67470e+01
      H2  2.23300e+01  0.00000e+00  2.23300e+01
      H2  2.79120e+01  5.58200e+00  2.23300e+01
      H2  2.79120e+01  0.00000e+00  2.79120e+01
      H2  2.23300e+01  5.58200e+00  2.79120e+01
      H2  2.23300e+01  0.00000e+00  3.34950e+01
      H2  2.79120e+01  5.58200e+00  3.34950e+01
      H2  2.23300e+01  1.11650e+01  0.00000e+00
      H2  2.79120e+01  1.67470e+01  0.00000e+00
      H2  2.79120e+01  1.11650e+01  5.58200e+00
      H2  2.23300e+01  1.67470e+01  5.58200e+00
      H2  2.23300e+01  1.11650e+01  1.11650e+01
      H2  2.79120e+01  1.67470e+01  1.11650e+01
      H2  2.79120e+01  1.11650e+01  1.67470e+01
      H2  2.23300e+01  1.67470e+01  1.67470e+01
      H2  2.23300e+01  1.11650e+01  2.23300e+01
      H2  2.79120e+01  1.67470e+01  2.23300e+01
      H2  2.79120e+01  1.11650e+01  2.79120e+01
      H2  2.23300e+01  1.67470e+01  2.79120e+01
      H2  2.23300e+01  1.11650e+01  3.34950e+01
      H2  2.79120e+01  1.67470e+01  3.34950e+01
      H2  2.23300e+01  2.23300e+01  0.00000e+00
      H2  2.79120e+01  2.79120e+01  0.00000e+00
      H2  2.79120e+01  2.23300e+01  5.58200e+00
      H2  2.23300e+01  2.79120e+01  5.58200e+00
      H2  2.23300e+01  2.23300e+01  1.11650e+01
      H2  2.79120e+01  2.79120e+01  1.11650e+01
      H2  2.79120e+01  2.23300e+01  1.67470e+01
      H2  2.23300e+01  2.79120e+01  1.67470e+01
      H2  2.23300e+01  2.23300e+01  2.23300e+01
      H2  2.79120e+01  2.79120e+01  2.23300e+01
      H2  2.79120e+01  2.23300e+01  2.79120e+01
      H2  2.23300e+01  2.79120e+01  2.79120e+01
      H2  2.23300e+01  2.23300e+01  3.34950e+01
      H2  2.79120e+01  2.79120e+01  3.34950e+01
      H2  2.23300e+01  3.34950e+01  0.00000e+00
      H2  2.79120e+01  3.34950e+01  5.58200e+00
      H2  2.23300e+01  3.34950e+01  1.11650e+01
      H2  2.79120e+01  3.34950e+01  1.67470e+01
      H2  2.23300e+01  3.34950e+01  2.23300e+01
      H2  2.79120e+01  3.34950e+01  2.79120e+01
      H2  2.23300e+01  3.34950e+01  3.34950e+01
      H2  3.34950e+01  0.00000e+00  0.00000e+00
      H2  3.34950e+01  5.58200e+00  5.58200e+00
      H2  3.34950e+01  0.00000e+00  1.11650e+01
      H2  3.34950e+01  5.58200e+00  1.67470e+01
      H2  3.34950e+01  0.00000e+00  2.23300e+01
      H2  3.34950e+01  5.58200e+00  2.79120e+01
      H2  3.34950e+01  0.00000e+00  3.34950e+01
      H2  3.34950e+01  1.11650e+01  0.00000e+00
      H2  3.34950e+01  1.67470e+01  5.58200e+00
      H2  3.34950e+01  1.11650e+01  1.11650e+01
      H2  3.34950e+01  1.67470e+01  1.67470e+01
      H2  3.34950e+01  1.11650e+01  2.23300e+01
      H2  3.34950e+01  1.67470e+01  2.79120e+01
      H2  3.34950e+01  1.11650e+01  3.34950e+01
      H2  3.34950e+01  2.23300e+01  0.00000e+00
      H2  3.34950e+01  2.79120e+01  5.58200e+00
      H2  3.34950e+01  2.23300e+01  1.11650e+01
      H2  3.34950e+01  2.79120e+01  1.67470e+01
      H2  3.34950e+01  2.23300e+01  2.23300e+01
      H2  3.34950e+01  2.79120e+01  2.79120e+01
      H2  3.34950e+01  2.23300e+01  3.34950e+01
      H2  3.34950e+01  3.34950e+01  0.00000e+00
      H2  3.34950e+01  3.34950e+01  1.11650e+01
      H2  3.34950e+01  3.34950e+01  2.23300e+01
      H2  3.34950e+01  3.34950e+01  3.34950e+01
