7
# CELL(abcABC):   25.29166    25.29166    25.29166    90.00000    90.00000    90.00000  Step:           0  Bead:       0 f_centroid{atomic_unit}  cell{atomic_unit}
       O  1.81782e-03  2.94126e-03 -2.50671e-03
       O -9.85165e-04 -3.13301e-03 -2.76220e-03
       H  1.96107e-03  2.46574e-03  5.79977e-03
       H -1.56524e-04  3.14017e-05  1.02516e-03
       H -2.23501e-03  5.02979e-03 -3.90609e-03
       H -3.66372e-03 -2.09913e-03  5.06836e-03
       H  3.26160e-03 -5.23500e-03 -2.71833e-03
7
# CELL(abcABC):   25.29166    25.29166    25.29166    90.00000    90.00000    90.00000  Step:           1  Bead:       0 f_centroid{atomic_unit}  cell{atomic_unit}
       O  7.08337e-03 -4.90473e-04  1.45813e-03
       O -7.19396e-03  5.13627e-04 -8.23604e-04
       H -4.11322e-04  4.21622e-05 -7.00528e-04
       H -9.24288e-05  1.79000e-05  6.14943e-04
       H  3.29653e-04 -6.36363e-04  7.54696e-05
       H  6.11597e-04 -7.27582e-05 -5.40857e-04
       H -3.28093e-04  6.27564e-04 -8.21885e-05
7
# CELL(abcABC):   25.29166    25.29166    25.29166    90.00000    90.00000    90.00000  Step:           2  Bead:       0 f_centroid{atomic_unit}  cell{atomic_unit}
       O  3.23119e-03 -1.71849e-04  4.68202e-04
       O -3.22900e-03  1.62866e-04 -5.59594e-04
       H  3.53418e-04 -2.63847e-04 -2.67049e-04
       H -1.22483e-05  1.12550e-06  1.04231e-04
       H -3.84868e-04 -4.21491e-04  2.85489e-04
       H -2.43763e-04  2.51349e-04 -3.85502e-04
       H  2.82022e-04  4.40322e-04  3.54385e-04
7
# CELL(abcABC):   25.29166    25.29166    25.29166    90.00000    90.00000    90.00000  Step:           3  Bead:       0 f_centroid{atomic_unit}  cell{atomic_unit}
       O -6.20602e-05  3.72457e-04  2.06433e-04
       O  7.88702e-07 -3.52736e-04  2.09812e-04
       H  6.92599e-04 -5.29717e-04 -2.84125e-04
       H  5.47786e-05 -1.32104e-05 -3.24253e-04
       H -9.41824e-04 -4.14815e-06  2.09849e-04
       H -5.77491e-04  5.03145e-04 -4.98443e-04
       H  8.34396e-04  2.31012e-05  4.79466e-04
7
# CELL(abcABC):   25.29166    25.29166    25.29166    90.00000    90.00000    90.00000  Step:           4  Bead:       0 f_centroid{atomic_unit}  cell{atomic_unit}
       O -3.57826e-04 -5.05710e-04 -7.37251e-04
       O  5.54465e-04  4.24187e-04 -5.87941e-04
       H  8.44848e-04 -2.19600e-04  4.05736e-04
       H  3.81206e-05 -6.40057e-06 -2.20336e-04
       H -6.04332e-04 -4.86909e-04  4.59271e-04
       H -8.99759e-04  2.49078e-04  8.49525e-05
       H  4.25904e-04  5.43129e-04  5.96482e-04
7
# CELL(abcABC):   25.29166    25.29166    25.29166    90.00000    90.00000    90.00000  Step:           5  Bead:       0 f_centroid{atomic_unit}  cell{atomic_unit}
       O -6.69274e-04 -4.41896e-04 -4.01896e-04
       O  7.38531e-04  4.10527e-04 -1.83205e-04
       H  4.61843e-04 -2.15024e-05  2.90699e-04
       H  2.44256e-05 -5.15854e-06 -1.45405e-04
       H -3.76970e-04 -2.57447e-04  1.19093e-04
       H -5.03576e-04  4.51450e-05  1.09493e-04
       H  3.26220e-04  2.70718e-04  2.11332e-04
7
# CELL(abcABC):   25.29166    25.29166    25.29166    90.00000    90.00000    90.00000  Step:           6  Bead:       0 f_centroid{atomic_unit}  cell{atomic_unit}
       O -5.31344e-05 -3.89720e-04 -8.28635e-06
       O  2.23130e-04  2.71311e-04 -1.05587e-06
       H  2.83464e-05  7.51655e-05  3.66896e-05
       H -1.10248e-05  1.37703e-06  4.75339e-05
       H -1.47394e-04 -4.62336e-05 -1.37076e-04
       H -1.22846e-04 -9.29830e-05  1.06199e-04
       H  8.01037e-05  1.76810e-04 -4.27207e-05
7
# CELL(abcABC):   25.29166    25.29166    25.29166    90.00000    90.00000    90.00000  Step:           7  Bead:       0 f_centroid{atomic_unit}  cell{atomic_unit}
       O -1.96984e-04  1.53970e-04  1.79206e-04
       O -4.63574e-04  3.26067e-04  1.31173e-04
       H -2.32987e-05  1.04487e-04  6.18769e-05
       H -9.47722e-06  2.51958e-06  1.07956e-04
       H  1.21962e-04 -2.14540e-04 -3.68729e-05
       H  2.79584e-04 -3.88994e-05 -1.68998e-04
       H  2.92154e-04 -3.32159e-04 -2.71882e-04
7
# CELL(abcABC):   25.29166    25.29166    25.29166    90.00000    90.00000    90.00000  Step:           8  Bead:       0 f_centroid{atomic_unit}  cell{atomic_unit}
       O  2.44459e-04 -4.38618e-05  2.11217e-04
       O -2.74912e-04 -1.06449e-04  2.80507e-04
       H -1.52426e-04  5.11747e-05 -1.02131e-04
       H -2.21107e-05  1.16174e-05  1.31482e-04
       H -3.03203e-05  1.65396e-04 -2.48490e-04
       H  2.18688e-04 -3.36996e-05 -1.11224e-04
       H  1.60185e-05 -4.30063e-05 -1.61700e-04
7
# CELL(abcABC):   25.29166    25.29166    25.29166    90.00000    90.00000    90.00000  Step:           9  Bead:       0 f_centroid{atomic_unit}  cell{atomic_unit}
       O  2.06629e-04  5.18057e-05  2.27642e-04
       O -8.42775e-05 -5.72413e-06  1.86304e-06
       H -1.35357e-04 -2.06583e-05 -1.65758e-04
       H -2.07990e-05 -3.12212e-06  1.10217e-04
       H -2.65175e-06  5.54238e-05 -1.18814e-04
       H  2.23579e-05 -3.96639e-05  5.03547e-05
       H  1.08344e-05 -3.83338e-05 -1.04919e-04
7
# CELL(abcABC):   25.29166    25.29166    25.29166    90.00000    90.00000    90.00000  Step:          10  Bead:       0 f_centroid{atomic_unit}  cell{atomic_unit}
       O -5.88798e-05 -1.39769e-04 -2.87699e-04
       O -3.04468e-05 -1.56274e-04  1.45712e-04
       H  1.10444e-04  2.75165e-05  2.17611e-04
       H -8.19540e-06  1.91861e-05  4.66670e-05
       H -3.73873e-05  6.25192e-05 -5.02368e-05
       H  6.79364e-05  7.29742e-05 -1.14520e-04
       H -4.48495e-05  1.11936e-04  4.31072e-05
