7
# CELL(abcABC):   25.29166    25.29166    25.29166    90.00000    90.00000    90.00000  Step:           0  Bead:       0 x_centroid{atomic_unit}  cell{atomic_unit}
       O  1.02130e+00 -1.84220e+00 -4.09276e-01
       O  5.52715e+00 -1.58596e+00  2.87988e-01
       H  3.47444e-01 -2.37735e+00 -2.03854e+00
       H  3.29434e+00 -1.71829e+00 -1.89719e-01
       H  6.23055e+00 -3.01079e+00  1.22313e+00
       H  6.67136e+00 -1.14921e+00 -1.08863e+00
       H  7.99951e-02 -3.68232e-01  1.74386e-01
7
# CELL(abcABC):   25.29166    25.29166    25.29166    90.00000    90.00000    90.00000  Step:           1  Bead:       0 x_centroid{atomic_unit}  cell{atomic_unit}
       O  1.02498e+00 -1.83625e+00 -4.14345e-01
       O  5.52516e+00 -1.59229e+00  2.82403e-01
       H  3.51409e-01 -2.37237e+00 -2.02682e+00
       H  3.29402e+00 -1.71822e+00 -1.87646e-01
       H  6.22604e+00 -3.00062e+00  1.21523e+00
       H  6.66395e+00 -1.15346e+00 -1.07838e+00
       H  8.65897e-02 -3.78816e-01  1.68890e-01
7
# CELL(abcABC):   25.29166    25.29166    25.29166    90.00000    90.00000    90.00000  Step:           2  Bead:       0 x_centroid{atomic_unit}  cell{atomic_unit}
       O  1.03561e+00 -1.83498e+00 -4.14045e-01
       O  5.51492e+00 -1.59366e+00  2.79494e-01
       H  3.52147e-01 -2.37070e+00 -2.02395e+00
       H  3.29379e+00 -1.71818e+00 -1.86154e-01
       H  6.22501e+00 -2.99817e+00  1.21277e+00
       H  6.66236e+00 -1.15493e+00 -1.07578e+00
       H  8.82915e-02 -3.81413e-01  1.66997e-01
7
# CELL(abcABC):   25.29166    25.29166    25.29166    90.00000    90.00000    90.00000  Step:           3  Bead:       0 x_centroid{atomic_unit}  cell{atomic_unit}
       O  1.04555e+00 -1.83365e+00 -4.14496e-01
       O  5.50554e+00 -1.59515e+00  2.76087e-01
       H  3.54991e-01 -2.37035e+00 -2.02120e+00
       H  3.29371e+00 -1.71817e+00 -1.85499e-01
       H  6.22193e+00 -2.99654e+00  1.21159e+00
       H  6.65884e+00 -1.15510e+00 -1.07404e+00
       H  9.15590e-02 -3.83080e-01  1.66892e-01
7
# CELL(abcABC):   25.29166    25.29166    25.29166    90.00000    90.00000    90.00000  Step:           4  Bead:       0 x_centroid{atomic_unit}  cell{atomic_unit}
       O  1.04765e+00 -1.83242e+00 -4.13921e-01
       O  5.50338e+00 -1.59635e+00  2.75990e-01
       H  3.57241e-01 -2.37161e+00 -2.02145e+00
       H  3.29382e+00 -1.71820e+00 -1.86162e-01
       H  6.21896e+00 -2.99622e+00  1.21185e+00
       H  6.65677e+00 -1.15387e+00 -1.07501e+00
       H  9.43075e-02 -3.83371e-01  1.68038e-01
7
# CELL(abcABC):   25.29166    25.29166    25.29166    90.00000    90.00000    90.00000  Step:           5  Bead:       0 x_centroid{atomic_unit}  cell{atomic_unit}
       O  1.05072e+00 -1.83176e+00 -4.14422e-01
       O  5.50060e+00 -1.59715e+00  2.74566e-01
       H  3.62450e-01 -2.37411e+00 -2.02121e+00
       H  3.29408e+00 -1.71826e+00 -1.87636e-01
       H  6.21316e+00 -2.99698e+00  1.21337e+00
       H  6.65178e+00 -1.15137e+00 -1.07652e+00
       H  9.93415e-02 -3.82419e-01  1.71182e-01
7
# CELL(abcABC):   25.29166    25.29166    25.29166    90.00000    90.00000    90.00000  Step:           6  Bead:       0 x_centroid{atomic_unit}  cell{atomic_unit}
       O  1.05052e+00 -1.83376e+00 -4.13439e-01
       O  5.50026e+00 -1.59501e+00  2.75399e-01
       H  3.66461e-01 -2.37538e+00 -2.02143e+00
       H  3.29434e+00 -1.71833e+00 -1.89111e-01
       H  6.20784e+00 -2.99837e+00  1.21340e+00
       H  6.64820e+00 -1.15009e+00 -1.07815e+00
       H  1.04519e-01 -3.81099e-01  1.72656e-01
7
# CELL(abcABC):   25.29166    25.29166    25.29166    90.00000    90.00000    90.00000  Step:           7  Bead:       0 x_centroid{atomic_unit}  cell{atomic_unit}
       O  1.05057e+00 -1.83648e+00 -4.12173e-01
       O  5.50073e+00 -1.59282e+00  2.76443e-01
       H  3.68082e-01 -2.37553e+00 -2.02182e+00
       H  3.29438e+00 -1.71836e+00 -1.89463e-01
       H  6.20453e+00 -2.99889e+00  1.21221e+00
       H  6.64633e+00 -1.15008e+00 -1.07860e+00
       H  1.07507e-01 -3.79897e-01  1.72718e-01
7
# CELL(abcABC):   25.29166    25.29166    25.29166    90.00000    90.00000    90.00000  Step:           8  Bead:       0 x_centroid{atomic_unit}  cell{atomic_unit}
       O  1.04986e+00 -1.83810e+00 -4.11175e-01
       O  5.50038e+00 -1.59054e+00  2.77320e-01
       H  3.69019e-01 -2.37525e+00 -2.02174e+00
       H  3.29439e+00 -1.71837e+00 -1.89466e-01
       H  6.20284e+00 -2.99972e+00  1.21135e+00
       H  6.64574e+00 -1.15029e+00 -1.07906e+00
       H  1.09890e-01 -3.79800e-01  1.72101e-01
7
# CELL(abcABC):   25.29166    25.29166    25.29166    90.00000    90.00000    90.00000  Step:           9  Bead:       0 x_centroid{atomic_unit}  cell{atomic_unit}
       O  1.04978e+00 -1.83933e+00 -4.10541e-01
       O  5.50011e+00 -1.58942e+00  2.78129e-01
       H  3.69066e-01 -2.37478e+00 -2.02163e+00
       H  3.29433e+00 -1.71834e+00 -1.89092e-01
       H  6.20210e+00 -2.99976e+00  1.21028e+00
       H  6.64584e+00 -1.15068e+00 -1.07915e+00
       H  1.10886e-01 -3.79750e-01  1.71341e-01
7
# CELL(abcABC):   25.29166    25.29166    25.29166    90.00000    90.00000    90.00000  Step:          10  Bead:       0 x_centroid{atomic_unit}  cell{atomic_unit}
       O  1.05003e+00 -1.84033e+00 -4.09479e-01
       O  5.49992e+00 -1.58815e+00  2.78523e-01
       H  3.68729e-01 -2.37434e+00 -2.02186e+00
       H  3.29420e+00 -1.71834e+00 -1.88393e-01
       H  6.20157e+00 -2.99979e+00  1.20906e+00
       H  6.64584e+00 -1.15126e+00 -1.07881e+00
       H  1.11795e-01 -3.79855e-01  1.70304e-01
