8
# CELL(abcABC): 5.4225 5.4225 5.4225  90.0  90.0  90.0  positions{angstrom}  cell{angstrom}
Si  0.00000000  0.00000000  0.00000000
Si  1.35562500  1.35562500  1.35562500
Si  0.00000000  2.71125000  2.71125000
Si  1.35562500  4.06687500  4.06687500
Si  2.71125000  0.00000000  2.71125000
Si  4.06687500  1.35562500  4.06687500
Si  2.71125000  2.71125000  0.00000000
Si  4.06687500  4.06687500  1.35562500
