7
# CELL(abcABC):   13.38377    13.38377    13.38377    90.00000    90.00000    90.00000  Step:           0  Bead:       0 forces{atomic_unit}  cell{angstrom}
       O -1.59162e-06  1.18945e-06 -3.87956e-07
       O -1.24203e-06  1.59304e-06 -5.34328e-07
       H  5.30065e-07 -6.90648e-07  2.41585e-08
       H  3.52713e-06 -1.27017e-05 -7.36549e-06
       H  3.17186e-06 -1.10845e-06  3.81988e-06
       H -1.73799e-06  2.28795e-06  3.72324e-07
       H -4.22915e-06  8.47535e-06  4.03304e-06
7
# CELL(abcABC):   13.38377    13.38377    13.38377    90.00000    90.00000    90.00000  Step:           1  Bead:       0 forces{atomic_unit}  cell{angstrom}
       O -1.59162e-06  1.18945e-06 -3.87956e-07
       O -1.24203e-06  1.59304e-06 -5.34328e-07
       H  5.30065e-07 -6.90648e-07  2.41585e-08
       H  3.52713e-06 -1.27017e-05 -7.36549e-06
       H  3.17186e-06 -1.10845e-06  3.81988e-06
       H -1.73799e-06  2.28795e-06  3.72324e-07
       H -4.22915e-06  8.47535e-06  4.03304e-06
7
# CELL(abcABC):   13.38377    13.38377    13.38377    90.00000    90.00000    90.00000  Step:           2  Bead:       0 forces{atomic_unit}  cell{angstrom}
       O -1.59162e-06  1.18945e-06 -3.87956e-07
       O -1.24203e-06  1.59304e-06 -5.34328e-07
       H  5.30065e-07 -6.90648e-07  2.41585e-08
       H  3.52713e-06 -1.27017e-05 -7.36549e-06
       H  3.17186e-06 -1.10845e-06  3.81988e-06
       H -1.73799e-06  2.28795e-06  3.72324e-07
       H -4.22915e-06  8.47535e-06  4.03304e-06
7
# CELL(abcABC):   13.38377    13.38377    13.38377    90.00000    90.00000    90.00000  Step:           3  Bead:       0 forces{atomic_unit}  cell{angstrom}
       O -1.59162e-06  1.18945e-06 -3.87956e-07
       O -1.24203e-06  1.59304e-06 -5.34328e-07
       H  5.30065e-07 -6.90648e-07  2.41585e-08
       H  3.52713e-06 -1.27017e-05 -7.36549e-06
       H  3.17186e-06 -1.10845e-06  3.81988e-06
       H -1.73799e-06  2.28795e-06  3.72324e-07
       H -4.22915e-06  8.47535e-06  4.03304e-06
7
# CELL(abcABC):   13.38377    13.38377    13.38377    90.00000    90.00000    90.00000  Step:           4  Bead:       0 forces{atomic_unit}  cell{angstrom}
       O -1.59162e-06  1.18945e-06 -3.87956e-07
       O -1.24203e-06  1.59304e-06 -5.34328e-07
       H  5.30065e-07 -6.90648e-07  2.41585e-08
       H  3.52713e-06 -1.27017e-05 -7.36549e-06
       H  3.17186e-06 -1.10845e-06  3.81988e-06
       H -1.73799e-06  2.28795e-06  3.72324e-07
       H -4.22915e-06  8.47535e-06  4.03304e-06
7
# CELL(abcABC):   13.38377    13.38377    13.38377    90.00000    90.00000    90.00000  Step:           5  Bead:       0 forces{atomic_unit}  cell{angstrom}
       O -1.59162e-06  1.18945e-06 -3.87956e-07
       O -1.24203e-06  1.59304e-06 -5.34328e-07
       H  5.30065e-07 -6.90648e-07  2.41585e-08
       H  3.52713e-06 -1.27017e-05 -7.36549e-06
       H  3.17186e-06 -1.10845e-06  3.81988e-06
       H -1.73799e-06  2.28795e-06  3.72324e-07
       H -4.22915e-06  8.47535e-06  4.03304e-06
7
# CELL(abcABC):   13.38377    13.38377    13.38377    90.00000    90.00000    90.00000  Step:           6  Bead:       0 forces{atomic_unit}  cell{angstrom}
       O -1.59162e-06  1.18945e-06 -3.87956e-07
       O -1.24203e-06  1.59304e-06 -5.34328e-07
       H  5.30065e-07 -6.90648e-07  2.41585e-08
       H  3.52713e-06 -1.27017e-05 -7.36549e-06
       H  3.17186e-06 -1.10845e-06  3.81988e-06
       H -1.73799e-06  2.28795e-06  3.72324e-07
       H -4.22915e-06  8.47535e-06  4.03304e-06
7
# CELL(abcABC):   13.38377    13.38377    13.38377    90.00000    90.00000    90.00000  Step:           7  Bead:       0 forces{atomic_unit}  cell{angstrom}
       O -1.59162e-06  1.18945e-06 -3.87956e-07
       O -1.24203e-06  1.59304e-06 -5.34328e-07
       H  5.30065e-07 -6.90648e-07  2.41585e-08
       H  3.52713e-06 -1.27017e-05 -7.36549e-06
       H  3.17186e-06 -1.10845e-06  3.81988e-06
       H -1.73799e-06  2.28795e-06  3.72324e-07
       H -4.22915e-06  8.47535e-06  4.03304e-06
7
# CELL(abcABC):   13.38377    13.38377    13.38377    90.00000    90.00000    90.00000  Step:           8  Bead:       0 forces{atomic_unit}  cell{angstrom}
       O -1.59162e-06  1.18945e-06 -3.87956e-07
       O -1.24203e-06  1.59304e-06 -5.34328e-07
       H  5.30065e-07 -6.90648e-07  2.41585e-08
       H  3.52713e-06 -1.27017e-05 -7.36549e-06
       H  3.17186e-06 -1.10845e-06  3.81988e-06
       H -1.73799e-06  2.28795e-06  3.72324e-07
       H -4.22915e-06  8.47535e-06  4.03304e-06
7
# CELL(abcABC):   13.38377    13.38377    13.38377    90.00000    90.00000    90.00000  Step:           9  Bead:       0 forces{atomic_unit}  cell{angstrom}
       O -1.59162e-06  1.18945e-06 -3.87956e-07
       O -1.24203e-06  1.59304e-06 -5.34328e-07
       H  5.30065e-07 -6.90648e-07  2.41585e-08
       H  3.52713e-06 -1.27017e-05 -7.36549e-06
       H  3.17186e-06 -1.10845e-06  3.81988e-06
       H -1.73799e-06  2.28795e-06  3.72324e-07
       H -4.22915e-06  8.47535e-06  4.03304e-06
7
# CELL(abcABC):   13.38377    13.38377    13.38377    90.00000    90.00000    90.00000  Step:          10  Bead:       0 forces{atomic_unit}  cell{angstrom}
       O -1.59162e-06  1.18945e-06 -3.87956e-07
       O -1.24203e-06  1.59304e-06 -5.34328e-07
       H  5.30065e-07 -6.90648e-07  2.41585e-08
       H  3.52713e-06 -1.27017e-05 -7.36549e-06
       H  3.17186e-06 -1.10845e-06  3.81988e-06
       H -1.73799e-06  2.28795e-06  3.72324e-07
       H -4.22915e-06  8.47535e-06  4.03304e-06
