7
# CELL(abcABC):   13.38377    13.38377    13.38377    90.00000    90.00000    90.00000  Step:           0  Bead:       1 forces{atomic_unit}  cell{angstrom}
       O -2.57091e-04 -7.88347e-05  4.98022e-04
       O  1.38533e-04  3.62087e-04  3.99973e-04
       H -7.79309e-05 -3.85796e-05  7.19254e-05
       H  2.68727e-05 -4.63473e-05 -2.50689e-04
       H -1.35003e-07 -3.23928e-04 -3.27205e-04
       H  5.85999e-05  7.72573e-05  5.00279e-05
       H  1.09787e-04  4.91951e-05 -4.44903e-04
7
# CELL(abcABC):   13.38377    13.38377    13.38377    90.00000    90.00000    90.00000  Step:           1  Bead:       1 forces{atomic_unit}  cell{angstrom}
       O -6.36059e-04 -3.04142e-04 -7.11239e-05
       O  1.32207e-02 -9.29127e-03 -4.58610e-04
       H -7.25052e-05  2.67292e-05  2.40283e-04
       H  1.07192e-03  1.30667e-04  9.29177e-05
       H -4.68291e-03  1.00941e-02 -1.42838e-02
       H -8.92007e-03 -8.21895e-04  1.46929e-02
       H  1.71624e-05  1.66979e-04 -2.11665e-04
7
# CELL(abcABC):   13.38377    13.38377    13.38377    90.00000    90.00000    90.00000  Step:           2  Bead:       1 forces{atomic_unit}  cell{angstrom}
       O  2.44285e-04 -2.31557e-04  1.65765e-04
       O  6.19588e-03 -5.51361e-03 -3.85600e-04
       H -5.25006e-05 -2.86704e-05  1.36862e-04
       H  1.03612e-03  1.81454e-04  1.88041e-04
       H -2.17443e-03  6.16296e-03 -1.03769e-02
       H -5.27089e-03 -7.90105e-04  1.05068e-02
       H  2.44000e-05  2.19289e-04 -2.35916e-04
7
# CELL(abcABC):   13.38377    13.38377    13.38377    90.00000    90.00000    90.00000  Step:           3  Bead:       1 forces{atomic_unit}  cell{angstrom}
       O  1.05460e-03  5.67141e-05  4.49874e-04
       O -4.78921e-03  1.15912e-03 -4.63324e-04
       H  3.02535e-05 -9.37675e-05  4.01329e-05
       H  7.54024e-04  1.87002e-04  2.03592e-04
       H  1.70270e-03 -2.66628e-04 -2.12415e-03
       H  1.10089e-03 -1.13623e-03  2.16470e-03
       H  1.44288e-04  9.37916e-05 -2.72674e-04
7
# CELL(abcABC):   13.38377    13.38377    13.38377    90.00000    90.00000    90.00000  Step:           4  Bead:       1 forces{atomic_unit}  cell{angstrom}
       O  8.64243e-04  1.37291e-04  2.74325e-04
       O -5.16968e-03  1.34220e-03 -6.43877e-04
       H  1.48114e-04 -3.41558e-05  2.04703e-04
       H  8.16644e-04  1.69786e-04  2.47539e-04
       H  1.91000e-03 -2.92236e-04 -2.19047e-03
       H  1.20310e-03 -1.30051e-03  2.36197e-03
       H  2.27330e-04 -2.22272e-05 -2.54767e-04
7
# CELL(abcABC):   13.38377    13.38377    13.38377    90.00000    90.00000    90.00000  Step:           5  Bead:       1 forces{atomic_unit}  cell{angstrom}
       O  1.47310e-04  1.03068e-04 -8.90509e-05
       O -1.93918e-03 -3.37589e-04 -5.09105e-04
       H  2.73941e-04  6.17916e-05  4.70357e-04
       H  8.17177e-04  9.70871e-05  2.17698e-04
       H  8.20673e-04  1.38468e-03 -4.09326e-03
       H -3.94893e-04 -1.21162e-03  4.22161e-03
       H  2.76644e-04 -9.88081e-05 -2.16468e-04
7
# CELL(abcABC):   13.38377    13.38377    13.38377    90.00000    90.00000    90.00000  Step:           6  Bead:       1 forces{atomic_unit}  cell{angstrom}
       O -6.00622e-05  1.02528e-04 -1.11829e-04
       O -1.90251e-03  3.44144e-05 -2.37101e-04
       H  2.59421e-04  3.84887e-05  4.50798e-04
       H  6.36035e-04  2.70589e-05  1.49041e-04
       H  7.97399e-04  8.60354e-04 -3.09044e-03
       H  1.49072e-05 -9.87511e-04  3.03822e-03
       H  2.52379e-04 -7.20959e-05 -1.98395e-04
7
# CELL(abcABC):   13.38377    13.38377    13.38377    90.00000    90.00000    90.00000  Step:           7  Bead:       1 forces{atomic_unit}  cell{angstrom}
       O -1.21503e-04  1.01353e-04  4.17060e-05
       O -2.61668e-03  1.21656e-03  3.17598e-05
       H  1.29069e-04 -7.54227e-05  2.31370e-04
       H  2.82310e-04 -9.02858e-05  4.21380e-05
       H  1.06963e-03 -6.04146e-04 -6.29308e-04
       H  1.11087e-03 -5.97396e-04  4.48685e-04
       H  1.49277e-04  4.91625e-05 -1.63305e-04
7
# CELL(abcABC):   13.38377    13.38377    13.38377    90.00000    90.00000    90.00000  Step:           8  Bead:       1 forces{atomic_unit}  cell{angstrom}
       O -2.30210e-04  6.23743e-05  7.18146e-05
       O -1.61721e-03  9.94582e-04  7.66789e-05
       H  5.55048e-05 -1.16283e-04  1.41331e-04
       H  1.41436e-04 -1.50857e-04 -8.24230e-07
       H  7.49660e-04 -5.13624e-04 -4.67324e-04
       H  8.20455e-04 -4.01499e-04  3.18668e-04
       H  7.73198e-05  1.24960e-04 -1.40069e-04
7
# CELL(abcABC):   13.38377    13.38377    13.38377    90.00000    90.00000    90.00000  Step:           9  Bead:       1 forces{atomic_unit}  cell{angstrom}
       O -3.52641e-04 -1.88535e-05  5.61101e-05
       O  5.45981e-05  3.17165e-04  1.42578e-04
       H -1.73131e-05 -1.27284e-04  9.42350e-05
       H  1.37135e-05 -1.96039e-04 -3.99083e-05
       H  1.71558e-04  1.18021e-05 -8.33973e-04
       H  1.30470e-04 -1.87902e-04  7.04560e-04
       H  3.63798e-07  2.00883e-04 -1.24518e-04
7
# CELL(abcABC):   13.38377    13.38377    13.38377    90.00000    90.00000    90.00000  Step:          10  Bead:       1 forces{atomic_unit}  cell{angstrom}
       O -3.41019e-04 -6.05709e-05  8.68766e-05
       O  7.19920e-04  1.42208e-04  1.89259e-04
       H -8.77250e-05 -1.44897e-04  3.27617e-05
       H -1.04723e-04 -2.17213e-04 -6.33406e-05
       H -7.25038e-05  5.09843e-05 -6.41694e-04
       H -5.84564e-05 -1.63382e-05  5.18646e-04
       H -5.50926e-05  2.48309e-04 -1.23691e-04
