7
# CELL(abcABC):   13.38377    13.38377    13.38377    90.00000    90.00000    90.00000  Step:           0  Bead:       1 positions{angstrom}  cell{angstrom}
       O  5.54810e-01 -9.55480e-01 -1.98800e-01
       O  2.92332e+00 -8.16620e-01  6.83600e-02
       H  1.68750e-01 -1.34489e+00 -9.96690e-01
       H  1.74588e+00 -9.04260e-01 -1.15740e-01
       H  3.26677e+00 -1.29224e+00  8.39050e-01
       H  3.51570e+00 -9.70180e-01 -6.81860e-01
       H  8.14400e-02 -1.36290e-01  8.53000e-03
7
# CELL(abcABC):   13.38377    13.38377    13.38377    90.00000    90.00000    90.00000  Step:           1  Bead:       1 positions{angstrom}  cell{angstrom}
       O  5.54674e-01 -9.55522e-01 -1.98536e-01
       O  2.92165e+00 -8.19993e-01  8.19898e-02
       H  1.68709e-01 -1.34491e+00 -9.96652e-01
       H  1.74589e+00 -9.04285e-01 -1.15873e-01
       H  3.27363e+00 -1.41412e+00  7.88688e-01
       H  3.51821e+00 -8.48536e-01 -7.03310e-01
       H  8.14981e-02 -1.36264e-01  8.29457e-03
7
# CELL(abcABC):   13.38377    13.38377    13.38377    90.00000    90.00000    90.00000  Step:           2  Bead:       1 positions{angstrom}  cell{angstrom}
       O  5.54507e-01 -9.55138e-01 -2.00255e-01
       O  2.92547e+00 -8.21831e-01  8.12890e-02
       H  1.69765e-01 -1.34194e+00 -1.00016e+00
       H  1.74620e+00 -9.04264e-01 -1.15911e-01
       H  3.26883e+00 -1.39187e+00  8.02084e-01
       H  3.51692e+00 -8.73583e-01 -6.98476e-01
       H  8.15240e-02 -1.36210e-01  8.12320e-03
7
# CELL(abcABC):   13.38377    13.38377    13.38377    90.00000    90.00000    90.00000  Step:           3  Bead:       1 positions{angstrom}  cell{angstrom}
       O  5.54577e-01 -9.55120e-01 -2.00741e-01
       O  2.92966e+00 -8.24570e-01  7.94885e-02
       H  1.70073e-01 -1.34103e+00 -1.00119e+00
       H  1.74677e+00 -9.04173e-01 -1.15824e-01
       H  3.26563e+00 -1.36958e+00  8.06705e-01
       H  3.51386e+00 -8.94261e-01 -6.89975e-01
       H  8.15370e-02 -1.36097e-01  7.98858e-03
7
# CELL(abcABC):   13.38377    13.38377    13.38377    90.00000    90.00000    90.00000  Step:           4  Bead:       1 positions{angstrom}  cell{angstrom}
       O  5.54923e-01 -9.55015e-01 -2.01040e-01
       O  2.92996e+00 -8.26366e-01  8.14360e-02
       H  1.70308e-01 -1.34041e+00 -1.00195e+00
       H  1.74723e+00 -9.04073e-01 -1.15704e-01
       H  3.26584e+00 -1.38462e+00  7.98430e-01
       H  3.51335e+00 -8.79144e-01 -6.90066e-01
       H  8.15854e-02 -1.36045e-01  7.91075e-03
7
# CELL(abcABC):   13.38377    13.38377    13.38377    90.00000    90.00000    90.00000  Step:           5  Bead:       1 positions{angstrom}  cell{angstrom}
       O  5.55496e-01 -9.54847e-01 -2.01229e-01
       O  2.92787e+00 -8.27194e-01  8.33404e-02
       H  1.70589e-01 -1.33987e+00 -1.00254e+00
       H  1.74787e+00 -9.03939e-01 -1.15521e-01
       H  3.26708e+00 -1.40206e+00  7.89502e-01
       H  3.51376e+00 -8.62618e-01 -6.90587e-01
       H  8.17212e-02 -1.36036e-01  7.75743e-03
7
# CELL(abcABC):   13.38377    13.38377    13.38377    90.00000    90.00000    90.00000  Step:           6  Bead:       1 positions{angstrom}  cell{angstrom}
       O  5.55721e-01 -9.54789e-01 -2.01256e-01
       O  2.92660e+00 -8.27282e-01  8.31021e-02
       H  1.70747e-01 -1.33971e+00 -1.00253e+00
       H  1.74833e+00 -9.03868e-01 -1.15410e-01
       H  3.26744e+00 -1.40115e+00  7.87910e-01
       H  3.51368e+00 -8.63808e-01 -6.88430e-01
       H  8.18534e-02 -1.36048e-01  7.60197e-03
7
# CELL(abcABC):   13.38377    13.38377    13.38377    90.00000    90.00000    90.00000  Step:           7  Bead:       1 positions{angstrom}  cell{angstrom}
       O  5.55896e-01 -9.54694e-01 -2.01343e-01
       O  2.92470e+00 -8.27404e-01  8.25130e-02
       H  1.71040e-01 -1.33948e+00 -1.00237e+00
       H  1.74911e+00 -9.03787e-01 -1.15237e-01
       H  3.26790e+00 -1.39707e+00  7.85872e-01
       H  3.51345e+00 -8.68198e-01 -6.84202e-01
       H  8.21061e-02 -1.36074e-01  7.32372e-03
7
# CELL(abcABC):   13.38377    13.38377    13.38377    90.00000    90.00000    90.00000  Step:           8  Bead:       1 positions{angstrom}  cell{angstrom}
       O  5.55991e-01 -9.54584e-01 -2.01480e-01
       O  2.92331e+00 -8.27552e-01  8.29326e-02
       H  1.71250e-01 -1.33926e+00 -1.00245e+00
       H  1.74955e+00 -9.03764e-01 -1.15130e-01
       H  3.26850e+00 -1.40079e+00  7.82581e-01
       H  3.51364e+00 -8.64942e-01 -6.82964e-01
       H  8.22460e-02 -1.36078e-01  7.19597e-03
7
# CELL(abcABC):   13.38377    13.38377    13.38377    90.00000    90.00000    90.00000  Step:           9  Bead:       1 positions{angstrom}  cell{angstrom}
       O  5.55987e-01 -9.54466e-01 -2.01578e-01
       O  2.92175e+00 -8.27403e-01  8.34724e-02
       H  1.71432e-01 -1.33910e+00 -1.00254e+00
       H  1.74994e+00 -9.03811e-01 -1.15049e-01
       H  3.26926e+00 -1.40542e+00  7.79287e-01
       H  3.51408e+00 -8.61032e-01 -6.82142e-01
       H  8.23656e-02 -1.36021e-01  7.06028e-03
7
# CELL(abcABC):   13.38377    13.38377    13.38377    90.00000    90.00000    90.00000  Step:          10  Bead:       1 positions{angstrom}  cell{angstrom}
       O  5.55866e-01 -9.54419e-01 -2.01583e-01
       O  2.92083e+00 -8.27131e-01  8.36507e-02
       H  1.71522e-01 -1.33908e+00 -1.00250e+00
       H  1.75018e+00 -9.03902e-01 -1.15017e-01
       H  3.26972e+00 -1.40663e+00  7.77608e-01
       H  3.51435e+00 -8.60274e-01 -6.81136e-01
       H  8.24428e-02 -1.35916e-01  6.91836e-03
