7
# CELL(abcABC):   13.38377    13.38377    13.38377    90.00000    90.00000    90.00000  Step:           0  Bead:      11 positions{angstrom}  cell{angstrom}
       O  5.54810e-01 -9.55480e-01 -1.98800e-01
       O  2.93887e+00 -8.85940e-01 -4.96000e-02
       H  1.68750e-01 -1.34489e+00 -9.96690e-01
       H  1.74588e+00 -9.04260e-01 -1.15740e-01
       H  3.32758e+00 -9.31100e-02  3.48470e-01
       H  3.38872e+00 -1.66580e+00  3.06450e-01
       H  8.14400e-02 -1.36290e-01  8.53000e-03
7
# CELL(abcABC):   13.38377    13.38377    13.38377    90.00000    90.00000    90.00000  Step:           1  Bead:      11 positions{angstrom}  cell{angstrom}
       O  5.54190e-01 -9.54772e-01 -1.97510e-01
       O  2.93936e+00 -8.84540e-01 -5.00077e-02
       H  1.69375e-01 -1.34464e+00 -9.97048e-01
       H  1.74595e+00 -9.05506e-01 -1.16313e-01
       H  3.32825e+00 -9.36652e-02  3.48516e-01
       H  3.38812e+00 -1.66593e+00  3.06724e-01
       H  8.08079e-02 -1.36797e-01  8.26270e-03
7
# CELL(abcABC):   13.38377    13.38377    13.38377    90.00000    90.00000    90.00000  Step:           2  Bead:      11 positions{angstrom}  cell{angstrom}
       O  5.53820e-01 -9.54713e-01 -1.96842e-01
       O  2.93969e+00 -8.84029e-01 -5.04059e-02
       H  1.69963e-01 -1.34432e+00 -9.97095e-01
       H  1.74599e+00 -9.06352e-01 -1.16713e-01
       H  3.32890e+00 -9.37987e-02  3.48702e-01
       H  3.38754e+00 -1.66581e+00  3.06845e-01
       H  8.01494e-02 -1.36880e-01  8.13551e-03
7
# CELL(abcABC):   13.38377    13.38377    13.38377    90.00000    90.00000    90.00000  Step:           3  Bead:      11 positions{angstrom}  cell{angstrom}
       O  5.53536e-01 -9.55148e-01 -1.96407e-01
       O  2.93997e+00 -8.84025e-01 -5.09580e-02
       H  1.70726e-01 -1.34384e+00 -9.96939e-01
       H  1.74603e+00 -9.07123e-01 -1.17093e-01
       H  3.32976e+00 -9.36718e-02  3.49073e-01
       H  3.38678e+00 -1.66548e+00  3.06882e-01
       H  7.92485e-02 -1.36679e-01  8.07263e-03
7
# CELL(abcABC):   13.38377    13.38377    13.38377    90.00000    90.00000    90.00000  Step:           4  Bead:      11 positions{angstrom}  cell{angstrom}
       O  5.53326e-01 -9.55240e-01 -1.95933e-01
       O  2.94023e+00 -8.85495e-01 -5.18109e-02
       H  1.71292e-01 -1.34355e+00 -9.96942e-01
       H  1.74605e+00 -9.07713e-01 -1.17356e-01
       H  3.33232e+00 -8.73265e-02  3.34091e-01
       H  3.38424e+00 -1.66263e+00  3.22104e-01
       H  7.86267e-02 -1.36691e-01  8.02270e-03
7
# CELL(abcABC):   13.38377    13.38377    13.38377    90.00000    90.00000    90.00000  Step:           5  Bead:      11 positions{angstrom}  cell{angstrom}
       O  5.52916e-01 -9.55265e-01 -1.95050e-01
       O  2.94104e+00 -8.85029e-01 -5.20343e-02
       H  1.72101e-01 -1.34313e+00 -9.97058e-01
       H  1.74613e+00 -9.08498e-01 -1.17753e-01
       H  3.33312e+00 -8.75410e-02  3.32604e-01
       H  3.38300e+00 -1.66168e+00  3.23549e-01
       H  7.77855e-02 -1.36864e-01  7.87765e-03
7
# CELL(abcABC):   13.38377    13.38377    13.38377    90.00000    90.00000    90.00000  Step:           6  Bead:      11 positions{angstrom}  cell{angstrom}
       O  5.52647e-01 -9.55394e-01 -1.94401e-01
       O  2.94150e+00 -8.85073e-01 -5.24191e-02
       H  1.72811e-01 -1.34277e+00 -9.97111e-01
       H  1.74619e+00 -9.09060e-01 -1.18044e-01
       H  3.33418e+00 -8.66421e-02  3.29111e-01
       H  3.38171e+00 -1.66047e+00  3.27084e-01
       H  7.70615e-02 -1.36961e-01  7.79130e-03
7
# CELL(abcABC):   13.38377    13.38377    13.38377    90.00000    90.00000    90.00000  Step:           7  Bead:      11 positions{angstrom}  cell{angstrom}
       O  5.52258e-01 -9.55738e-01 -1.93317e-01
       O  2.94198e+00 -8.85650e-01 -5.34475e-02
       H  1.74150e-01 -1.34210e+00 -9.97176e-01
       H  1.74630e+00 -9.09897e-01 -1.18497e-01
       H  3.33661e+00 -8.36603e-02  3.20123e-01
       H  3.37910e+00 -1.65787e+00  3.36330e-01
       H  7.57492e-02 -1.37128e-01  7.67837e-03
7
# CELL(abcABC):   13.38377    13.38377    13.38377    90.00000    90.00000    90.00000  Step:           8  Bead:      11 positions{angstrom}  cell{angstrom}
       O  5.52046e-01 -9.55918e-01 -1.92693e-01
       O  2.94219e+00 -8.85757e-01 -5.39870e-02
       H  1.74913e-01 -1.34173e+00 -9.97244e-01
       H  1.74637e+00 -9.10227e-01 -1.18704e-01
       H  3.33771e+00 -8.27976e-02  3.16776e-01
       H  3.37785e+00 -1.65673e+00  3.39819e-01
       H  7.50631e-02 -1.37295e-01  7.61664e-03
7
# CELL(abcABC):   13.38377    13.38377    13.38377    90.00000    90.00000    90.00000  Step:           9  Bead:      11 positions{angstrom}  cell{angstrom}
       O  5.51814e-01 -9.56113e-01 -1.91972e-01
       O  2.94242e+00 -8.85573e-01 -5.45120e-02
       H  1.75812e-01 -1.34133e+00 -9.97371e-01
       H  1.74644e+00 -9.10368e-01 -1.18858e-01
       H  3.33859e+00 -8.30362e-02  3.15391e-01
       H  3.37672e+00 -1.65584e+00  3.41314e-01
       H  7.43550e-02 -1.37601e-01  7.55785e-03
7
# CELL(abcABC):   13.38377    13.38377    13.38377    90.00000    90.00000    90.00000  Step:          10  Bead:      11 positions{angstrom}  cell{angstrom}
       O  5.51637e-01 -9.56337e-01 -1.91334e-01
       O  2.94250e+00 -8.85565e-01 -5.51206e-02
       H  1.76689e-01 -1.34096e+00 -9.97493e-01
       H  1.74651e+00 -9.10376e-01 -1.18950e-01
       H  3.33956e+00 -8.28750e-02  3.13298e-01
       H  3.37557e+00 -1.65490e+00  3.43545e-01
       H  7.36950e-02 -1.37904e-01  7.53517e-03
