7
# CELL(abcABC):   13.38377    13.38377    13.38377    90.00000    90.00000    90.00000  Step:           0  Bead:       8 forces{atomic_unit}  cell{angstrom}
       O -1.69816e-03  3.31343e-04  2.34399e-03
       O  1.39494e-03  2.43972e-03 -2.12702e-04
       H  7.09751e-04  7.17534e-04 -4.27859e-04
       H  1.48049e-04 -1.48269e-03 -1.24486e-03
       H  9.38823e-04 -1.06967e-03 -2.02733e-04
       H -7.38429e-04 -2.73175e-04  7.62938e-04
       H -7.57166e-04 -6.63292e-04 -1.02002e-03
7
# CELL(abcABC):   13.38377    13.38377    13.38377    90.00000    90.00000    90.00000  Step:           1  Bead:       8 forces{atomic_unit}  cell{angstrom}
       O -1.03635e-03 -9.85771e-04  1.40313e-03
       O  9.91780e-04  1.08638e-03 -1.20837e-03
       H  8.50639e-04  9.19928e-04  8.26688e-05
       H  1.03719e-04 -1.06927e-03 -9.35606e-04
       H  1.20044e-03 -4.60260e-04  6.23946e-04
       H -9.40479e-04  2.32124e-04  7.72596e-04
       H -1.17139e-03  2.75926e-04 -7.40660e-04
7
# CELL(abcABC):   13.38377    13.38377    13.38377    90.00000    90.00000    90.00000  Step:           2  Bead:       8 forces{atomic_unit}  cell{angstrom}
       O -7.79704e-04 -1.19507e-03  1.19795e-03
       O  7.85975e-04  8.04648e-04 -1.36916e-03
       H  8.27011e-04  8.98336e-04  1.29086e-04
       H  7.95822e-05 -8.44787e-04 -7.66161e-04
       H  1.17246e-03 -3.43806e-04  7.32210e-04
       H -9.16866e-04  2.67192e-04  7.38609e-04
       H -1.16707e-03  4.14205e-04 -6.62826e-04
7
# CELL(abcABC):   13.38377    13.38377    13.38377    90.00000    90.00000    90.00000  Step:           3  Bead:       8 forces{atomic_unit}  cell{angstrom}
       O -7.95150e-04 -6.15347e-04  1.45836e-03
       O  7.10381e-04  1.23319e-03 -9.20009e-04
       H  6.90186e-04  7.07993e-04 -1.35165e-04
       H  6.31445e-05 -7.03244e-04 -6.52653e-04
       H  8.98413e-04 -5.74336e-04  3.04416e-04
       H -7.38464e-04 -1.84812e-05  6.59659e-04
       H -8.28751e-04 -3.08745e-05 -7.15372e-04
7
# CELL(abcABC):   13.38377    13.38377    13.38377    90.00000    90.00000    90.00000  Step:           4  Bead:       8 forces{atomic_unit}  cell{angstrom}
       O -7.41993e-04 -5.25448e-04  1.40211e-03
       O  6.58108e-04  1.20381e-03 -8.28017e-04
       H  6.63482e-04  6.50911e-04 -1.55448e-04
       H  4.70095e-05 -5.65240e-04 -5.44027e-04
       H  7.89076e-04 -5.96178e-04  2.02263e-04
       H -7.08204e-04 -5.11307e-05  6.15053e-04
       H -7.07986e-04 -1.20045e-04 -6.92447e-04
7
# CELL(abcABC):   13.38377    13.38377    13.38377    90.00000    90.00000    90.00000  Step:           5  Bead:       8 forces{atomic_unit}  cell{angstrom}
       O -5.80219e-04 -7.05920e-04  1.09987e-03
       O  5.55912e-04  8.54391e-04 -9.22387e-04
       H  6.83586e-04  6.36587e-04 -3.62590e-05
       H  2.27743e-05 -3.34647e-04 -3.67049e-04
       H  7.17645e-04 -4.84752e-04  2.61112e-04
       H -7.39128e-04  5.12429e-05  5.60624e-04
       H -6.61406e-04 -1.74666e-05 -5.97431e-04
7
# CELL(abcABC):   13.38377    13.38377    13.38377    90.00000    90.00000    90.00000  Step:           6  Bead:       8 forces{atomic_unit}  cell{angstrom}
       O -4.86035e-04 -6.83971e-04  9.74276e-04
       O  4.76689e-04  7.39529e-04 -8.78946e-04
       H  6.67816e-04  5.79706e-04 -2.86875e-05
       H  5.98419e-06 -1.76553e-04 -2.40797e-04
       H  6.22387e-04 -4.56241e-04  2.11647e-04
       H -7.19866e-04  4.34355e-05  5.08203e-04
       H -5.64773e-04 -4.55714e-05 -5.43552e-04
7
# CELL(abcABC):   13.38377    13.38377    13.38377    90.00000    90.00000    90.00000  Step:           7  Bead:       8 forces{atomic_unit}  cell{angstrom}
       O -3.83814e-04 -4.84435e-04  8.64850e-04
       O  8.58617e-04  4.79120e-04 -2.44887e-04
       H  6.23949e-04  4.39984e-04 -9.47281e-05
       H  2.29804e-05  6.64613e-05 -5.32808e-05
       H  2.21866e-04 -9.25235e-04 -5.31180e-04
       H -9.81726e-04  6.19082e-04  5.21563e-04
       H -3.58817e-04 -1.94835e-04 -4.64077e-04
7
# CELL(abcABC):   13.38377    13.38377    13.38377    90.00000    90.00000    90.00000  Step:           8  Bead:       8 forces{atomic_unit}  cell{angstrom}
       O -2.41880e-04 -4.37454e-04  7.79130e-04
       O -3.80595e-05  6.82699e-04 -8.56510e-04
       H  5.98871e-04  3.68611e-04 -1.07610e-04
       H -3.43206e-05  1.78133e-04  3.90969e-05
       H  4.55610e-04 -2.69826e-04  2.31542e-04
       H -4.72853e-04 -3.13520e-04  3.29911e-04
       H -2.67744e-04 -2.08573e-04 -4.15726e-04
7
# CELL(abcABC):   13.38377    13.38377    13.38377    90.00000    90.00000    90.00000  Step:           9  Bead:       8 forces{atomic_unit}  cell{angstrom}
       O -2.08121e-04 -4.48387e-04  6.14442e-04
       O  2.48353e-04  4.55613e-04 -5.63077e-04
       H  6.10295e-04  3.16621e-04 -6.98876e-05
       H -4.18993e-05  2.82522e-04  1.26462e-04
       H  2.55018e-04 -3.91167e-04 -5.85572e-05
       H -6.49554e-04 -3.09072e-05  2.91530e-04
       H -2.14632e-04 -1.85480e-04 -3.40458e-04
7
# CELL(abcABC):   13.38377    13.38377    13.38377    90.00000    90.00000    90.00000  Step:          10  Bead:       8 forces{atomic_unit}  cell{angstrom}
       O -1.46329e-04 -4.09494e-04  5.11963e-04
       O  1.37942e-04  4.10930e-04 -5.67172e-04
       H  6.02914e-04  2.52591e-04 -6.92367e-05
       H -6.20872e-05  3.51733e-04  1.91038e-04
       H  2.15162e-04 -2.49715e-04  1.44396e-05
       H -5.88636e-04 -1.73078e-04  1.97419e-04
       H -1.59044e-04 -1.79379e-04 -2.78384e-04
