7
# CELL(abcABC):   13.38377    13.38377    13.38377    90.00000    90.00000    90.00000  Step:           0  Bead:       9 forces{atomic_unit}  cell{angstrom}
       O -1.60048e-03  6.26599e-04  2.42892e-03
       O  1.32378e-03  2.50116e-03 -4.14059e-04
       H  8.92814e-04  6.97790e-04 -5.26317e-04
       H  1.47992e-04 -1.80365e-03 -1.25487e-03
       H  1.08736e-03 -1.01568e-03 -1.79442e-04
       H -9.18453e-04 -2.23390e-04  8.13650e-04
       H -9.31634e-04 -7.84505e-04 -8.68059e-04
7
# CELL(abcABC):   13.38377    13.38377    13.38377    90.00000    90.00000    90.00000  Step:           1  Bead:       9 forces{atomic_unit}  cell{angstrom}
       O -9.65332e-04 -8.75724e-04  1.34451e-03
       O  9.32646e-04  8.28366e-04 -1.25200e-03
       H  1.07086e-03  9.57060e-04  9.42165e-05
       H  1.05656e-04 -1.31193e-03 -9.50692e-04
       H  1.38714e-03 -2.14830e-04  6.00770e-04
       H -1.14781e-03  3.70682e-04  7.31124e-04
       H -1.38158e-03  2.46287e-04 -5.69916e-04
7
# CELL(abcABC):   13.38377    13.38377    13.38377    90.00000    90.00000    90.00000  Step:           2  Bead:       9 forces{atomic_unit}  cell{angstrom}
       O -7.23816e-04 -1.12432e-03  1.11799e-03
       O  7.37867e-04  5.00719e-04 -1.38739e-03
       H  1.04218e-03  9.44432e-04  1.55005e-04
       H  8.02785e-05 -1.04829e-03 -7.83172e-04
       H  1.35707e-03 -7.77618e-05  6.97882e-04
       H -1.11896e-03  4.10597e-04  6.93706e-04
       H -1.37453e-03  3.96376e-04 -4.94470e-04
7
# CELL(abcABC):   13.38377    13.38377    13.38377    90.00000    90.00000    90.00000  Step:           3  Bead:       9 forces{atomic_unit}  cell{angstrom}
       O -7.49978e-04 -4.89592e-04  1.44417e-03
       O  6.73916e-04  1.07421e-03 -1.00745e-03
       H  8.70706e-04  7.31112e-04 -1.64420e-04
       H  6.36263e-05 -8.78188e-04 -6.71199e-04
       H  1.05444e-03 -4.05771e-04  2.85850e-04
       H -9.11832e-04  6.21768e-05  6.72821e-04
       H -1.00141e-03 -9.42464e-05 -5.62935e-04
7
# CELL(abcABC):   13.38377    13.38377    13.38377    90.00000    90.00000    90.00000  Step:           4  Bead:       9 forces{atomic_unit}  cell{angstrom}
       O -7.01577e-04 -4.04233e-04  1.39812e-03
       O  6.26264e-04  1.07050e-03 -9.19428e-04
       H  8.30686e-04  6.73597e-04 -1.93937e-04
       H  4.87944e-05 -7.11934e-04 -5.63389e-04
       H  9.34938e-04 -4.51594e-04  1.87109e-04
       H -8.67564e-04  1.76428e-05  6.39788e-04
       H -8.72535e-04 -1.90727e-04 -5.43994e-04
7
# CELL(abcABC):   13.38377    13.38377    13.38377    90.00000    90.00000    90.00000  Step:           5  Bead:       9 forces{atomic_unit}  cell{angstrom}
       O -5.47719e-04 -6.36020e-04  1.07374e-03
       O  5.32111e-04  6.75652e-04 -9.82213e-04
       H  8.43950e-04  6.68118e-04 -6.45059e-05
       H  2.22485e-05 -4.34419e-04 -3.86102e-04
       H  8.63595e-04 -3.24725e-04  2.38562e-04
       H -8.93512e-04  1.23579e-04  5.71315e-04
       H -8.22668e-04 -7.31148e-05 -4.52152e-04
7
# CELL(abcABC):   13.38377    13.38377    13.38377    90.00000    90.00000    90.00000  Step:           6  Bead:       9 forces{atomic_unit}  cell{angstrom}
       O -4.79730e-04 -6.23238e-04  9.46018e-04
       O  9.14304e-04  4.53468e-04 -5.02737e-04
       H  8.24761e-04  6.14106e-04 -5.81593e-05
       H  4.39016e-05 -2.44466e-04 -2.62855e-04
       H  5.68173e-04 -8.08181e-04 -2.52628e-04
       H -1.14368e-03  7.13820e-04  5.26356e-04
       H -7.28090e-04 -1.07950e-04 -3.97033e-04
7
# CELL(abcABC):   13.38377    13.38377    13.38377    90.00000    90.00000    90.00000  Step:           7  Bead:       9 forces{atomic_unit}  cell{angstrom}
       O -2.90858e-04 -4.39853e-04  8.69483e-04
       O  3.64565e-04  4.83810e-04 -6.21640e-04
       H  7.43722e-04  4.65785e-04 -1.52562e-04
       H  2.81815e-05  4.93543e-05 -7.97471e-05
       H  5.20257e-04 -6.65223e-04 -1.89188e-04
       H -8.70905e-04  3.59903e-04  5.04643e-04
       H -4.96709e-04 -2.57268e-04 -3.32371e-04
7
# CELL(abcABC):   13.38377    13.38377    13.38377    90.00000    90.00000    90.00000  Step:           8  Bead:       9 forces{atomic_unit}  cell{angstrom}
       O -2.02745e-04 -3.93757e-04  7.74942e-04
       O  1.28448e-04  4.48129e-04 -6.67578e-04
       H  7.22331e-04  4.01793e-04 -1.64579e-04
       H  2.16204e-05  1.95288e-04  1.55183e-05
       H  4.93381e-04 -5.89205e-04 -1.62007e-04
       H -7.63070e-04  2.31267e-04  4.85804e-04
       H -4.00516e-04 -2.93038e-04 -2.80578e-04
7
# CELL(abcABC):   13.38377    13.38377    13.38377    90.00000    90.00000    90.00000  Step:           9  Bead:       9 forces{atomic_unit}  cell{angstrom}
       O -1.39129e-04 -4.22870e-04  6.04534e-04
       O -1.66521e-04  3.64992e-04 -8.74940e-04
       H  7.24701e-04  3.58685e-04 -1.19068e-04
       H -1.50948e-05  3.17914e-04  1.04160e-04
       H  5.35486e-04 -2.25803e-04  7.53033e-05
       H -6.01244e-04 -1.25242e-04  4.24281e-04
       H -3.36634e-04 -2.64968e-04 -2.14061e-04
7
# CELL(abcABC):   13.38377    13.38377    13.38377    90.00000    90.00000    90.00000  Step:          10  Bead:       9 forces{atomic_unit}  cell{angstrom}
       O -1.25264e-04 -3.88110e-04  4.91997e-04
       O  6.00082e-05  2.60118e-04 -5.97720e-04
       H  7.17755e-04  3.01206e-04 -1.11761e-04
       H -2.21746e-05  4.10445e-04  1.72759e-04
       H  3.60963e-04 -3.70676e-04 -1.51279e-04
       H -7.14356e-04  6.39574e-05  3.50012e-04
       H -2.72932e-04 -2.76314e-04 -1.53752e-04
