7
# CELL(abcABC):   13.38377    13.38377    13.38377    90.00000    90.00000    90.00000  Step:           0  Bead:       2 positions{angstrom}  cell{angstrom}
       O  5.54810e-01 -9.55480e-01 -1.98800e-01
       O  2.92527e+00 -8.12630e-01  5.33400e-02
       H  1.68750e-01 -1.34489e+00 -9.96690e-01
       H  1.74588e+00 -9.04260e-01 -1.15740e-01
       H  3.25909e+00 -1.15600e+00  8.95230e-01
       H  3.51292e+00 -1.10630e+00 -6.57820e-01
       H  8.14400e-02 -1.36290e-01  8.53000e-03
7
# CELL(abcABC):   13.38377    13.38377    13.38377    90.00000    90.00000    90.00000  Step:           1  Bead:       2 positions{angstrom}  cell{angstrom}
       O  5.54543e-01 -9.55546e-01 -1.98378e-01
       O  2.92544e+00 -8.12265e-01  5.36056e-02
       H  1.68710e-01 -1.34487e+00 -9.96653e-01
       H  1.74590e+00 -9.04322e-01 -1.15950e-01
       H  3.25912e+00 -1.15609e+00  8.95047e-01
       H  3.51294e+00 -1.10645e+00 -6.57712e-01
       H  8.14914e-02 -1.36280e-01  8.17440e-03
7
# CELL(abcABC):   13.38377    13.38377    13.38377    90.00000    90.00000    90.00000  Step:           2  Bead:       2 positions{angstrom}  cell{angstrom}
       O  5.54411e-01 -9.55678e-01 -1.98158e-01
       O  2.92459e+00 -8.13657e-01  6.08810e-02
       H  1.68691e-01 -1.34486e+00 -9.96579e-01
       H  1.74592e+00 -9.04348e-01 -1.16069e-01
       H  3.26249e+00 -1.22184e+00  8.70623e-01
       H  3.51456e+00 -1.04232e+00 -6.71336e-01
       H  8.15073e-02 -1.36200e-01  7.94115e-03
7
# CELL(abcABC):   13.38377    13.38377    13.38377    90.00000    90.00000    90.00000  Step:           3  Bead:       2 positions{angstrom}  cell{angstrom}
       O  5.54293e-01 -9.55928e-01 -1.97838e-01
       O  2.92439e+00 -8.13036e-01  6.00971e-02
       H  1.68630e-01 -1.34498e+00 -9.96270e-01
       H  1.74589e+00 -9.04377e-01 -1.16190e-01
       H  3.26265e+00 -1.21564e+00  8.71588e-01
       H  3.51442e+00 -1.04788e+00 -6.69000e-01
       H  8.15044e-02 -1.36055e-01  7.66621e-03
7
# CELL(abcABC):   13.38377    13.38377    13.38377    90.00000    90.00000    90.00000  Step:           4  Bead:       2 positions{angstrom}  cell{angstrom}
       O  5.54210e-01 -9.56056e-01 -1.97643e-01
       O  2.92405e+00 -8.12653e-01  6.04385e-02
       H  1.68597e-01 -1.34504e+00 -9.96129e-01
       H  1.74586e+00 -9.04395e-01 -1.16267e-01
       H  3.26303e+00 -1.21916e+00  8.70386e-01
       H  3.51471e+00 -1.04460e+00 -6.69767e-01
       H  8.15328e-02 -1.35973e-01  7.46528e-03
7
# CELL(abcABC):   13.38377    13.38377    13.38377    90.00000    90.00000    90.00000  Step:           5  Bead:       2 positions{angstrom}  cell{angstrom}
       O  5.54058e-01 -9.56199e-01 -1.97380e-01
       O  2.92356e+00 -8.12330e-01  6.20770e-02
       H  1.68552e-01 -1.34510e+00 -9.95974e-01
       H  1.74577e+00 -9.04419e-01 -1.16372e-01
       H  3.26388e+00 -1.23413e+00  8.65797e-01
       H  3.51544e+00 -1.03055e+00 -6.73592e-01
       H  8.16097e-02 -1.35874e-01  7.15943e-03
7
# CELL(abcABC):   13.38377    13.38377    13.38377    90.00000    90.00000    90.00000  Step:           6  Bead:       2 positions{angstrom}  cell{angstrom}
       O  5.53901e-01 -9.56345e-01 -1.97170e-01
       O  2.92379e+00 -8.12264e-01  6.28246e-02
       H  1.68517e-01 -1.34514e+00 -9.95843e-01
       H  1.74572e+00 -9.04437e-01 -1.16454e-01
       H  3.26408e+00 -1.24004e+00  8.63653e-01
       H  3.51553e+00 -1.02484e+00 -6.74873e-01
       H  8.16676e-02 -1.35774e-01  6.89312e-03
7
# CELL(abcABC):   13.38377    13.38377    13.38377    90.00000    90.00000    90.00000  Step:           7  Bead:       2 positions{angstrom}  cell{angstrom}
       O  5.53647e-01 -9.56624e-01 -1.96789e-01
       O  2.92468e+00 -8.12334e-01  6.36359e-02
       H  1.68446e-01 -1.34524e+00 -9.95611e-01
       H  1.74566e+00 -9.04454e-01 -1.16575e-01
       H  3.26403e+00 -1.24520e+00  8.61183e-01
       H  3.51528e+00 -1.01957e+00 -6.75569e-01
       H  8.17753e-02 -1.35566e-01  6.39846e-03
7
# CELL(abcABC):   13.38377    13.38377    13.38377    90.00000    90.00000    90.00000  Step:           8  Bead:       2 positions{angstrom}  cell{angstrom}
       O  5.53566e-01 -9.56761e-01 -1.96573e-01
       O  2.92498e+00 -8.12352e-01  6.41478e-02
       H  1.68400e-01 -1.34531e+00 -9.95490e-01
       H  1.74562e+00 -9.04448e-01 -1.16616e-01
       H  3.26408e+00 -1.24897e+00  8.59544e-01
       H  3.51522e+00 -1.01581e+00 -6.76180e-01
       H  8.18537e-02 -1.35444e-01  6.12162e-03
7
# CELL(abcABC):   13.38377    13.38377    13.38377    90.00000    90.00000    90.00000  Step:           9  Bead:       2 positions{angstrom}  cell{angstrom}
       O  5.53554e-01 -9.56888e-01 -1.96333e-01
       O  2.92499e+00 -8.12274e-01  6.46875e-02
       H  1.68355e-01 -1.34543e+00 -9.95344e-01
       H  1.74560e+00 -9.04416e-01 -1.16621e-01
       H  3.26422e+00 -1.25349e+00  8.57739e-01
       H  3.51528e+00 -1.01143e+00 -6.76986e-01
       H  8.19798e-02 -1.35304e-01  5.79632e-03
7
# CELL(abcABC):   13.38377    13.38377    13.38377    90.00000    90.00000    90.00000  Step:          10  Bead:       2 positions{angstrom}  cell{angstrom}
       O  5.53544e-01 -9.57006e-01 -1.96124e-01
       O  2.92503e+00 -8.12202e-01  6.49843e-02
       H  1.68330e-01 -1.34555e+00 -9.95183e-01
       H  1.74561e+00 -9.04375e-01 -1.16609e-01
       H  3.26424e+00 -1.25580e+00  8.56662e-01
       H  3.51525e+00 -1.00921e+00 -6.77239e-01
       H  8.21170e-02 -1.35171e-01  5.47638e-03
