140
# CELL(abcABC):   17.14040    19.79200    30.00000    90.00000    90.00000    90.00000  Step:           0  Bead:       0 positions{angstrom}  cell{angstrom}
       C  4.41273e+00 -1.00315e+01 -1.14522e-01
       C  5.82666e+00 -1.00066e+01 -4.15651e-02
       C  3.72029e+00 -1.11523e+01 -2.06862e-02
       C  6.55708e+00 -1.11584e+01 -2.09190e-01
       C  4.48609e+00 -7.50142e+00 -1.76490e-02
       C  5.85826e+00 -7.52609e+00 -1.51526e-01
       C  3.72895e+00 -8.79900e+00 -9.02312e-02
       C  6.53921e+00 -8.76712e+00 -2.17439e-01
       C  4.40630e+00 -5.09574e+00 -2.03962e-01
       C  5.83593e+00 -5.08301e+00 -2.16609e-01
       C  3.70364e+00 -6.30167e+00 -1.09663e-01
       C  6.52421e+00 -6.20624e+00 -1.13717e-01
       C  4.43668e+00 -2.60353e+00 -7.76552e-02
       C  5.88665e+00 -2.52505e+00 -2.57520e-01
       C  3.67657e+00 -3.83328e+00 -3.09095e-01
       C  6.52712e+00 -3.77680e+00 -1.92368e-01
       C  8.75653e+00 -9.97315e+00 -1.11215e-01
       C  1.01157e+01 -9.98488e+00 -4.02358e-02
       C  7.94362e+00 -1.12020e+01  7.16680e-02
       C  1.08761e+01 -1.11957e+01 -3.98245e-02
       C  8.74294e+00 -7.54365e+00 -1.13092e-01
       C  1.02352e+01 -7.43741e+00 -1.29705e-01
       C  7.99292e+00 -8.77591e+00 -1.72933e-01
       C  1.09118e+01 -8.71087e+00 -2.22123e-01
       C  8.72341e+00 -5.00073e+00 -8.46761e-02
       C  1.01876e+01 -4.96821e+00 -2.33790e-01
       C  8.05628e+00 -6.27004e+00 -1.25100e-01
       C  1.08378e+01 -6.24130e+00 -2.37436e-01
       C  8.65821e+00 -2.53579e+00 -2.18070e-01
       C  1.01298e+01 -2.49067e+00 -2.52704e-01
       C  7.93646e+00 -3.79624e+00 -1.92064e-01
       C  1.08917e+01 -3.71097e+00 -4.48000e-02
       C  1.29402e+01 -9.92338e+00 -2.09810e-01
       C  1.44774e+01 -9.88110e+00 -1.57724e-01
       C  1.23423e+01 -1.11515e+01  4.81929e-02
       C  1.51093e+01 -1.11993e+01 -1.40881e-01
       C  1.30093e+01 -7.47313e+00  1.93908e-03
       C  1.43988e+01 -7.48033e+00 -1.89541e-01
       C  1.22824e+01 -8.73194e+00 -1.61437e-01
       C  1.51008e+01 -8.62608e+00 -1.39807e-01
       C  1.30080e+01 -4.99848e+00 -1.51005e-01
       C  1.44870e+01 -4.99328e+00 -1.79948e-01
       C  1.23328e+01 -6.18807e+00 -1.24635e-01
       C  1.51190e+01 -6.23921e+00 -1.33502e-01
       C  1.29752e+01 -2.51772e+00 -3.98693e-02
       C  1.44831e+01 -2.50993e+00 -3.97909e-02
       C  1.22852e+01 -3.81204e+00 -1.24197e-01
       C  1.51242e+01 -3.67215e+00 -7.24808e-02
       C  6.07337e-02 -9.95338e+00 -2.22562e-01
       C  1.50990e+00 -9.99243e+00 -5.13759e-03
       C -6.25934e-01 -1.11682e+01 -1.42205e-01
       C  2.25855e+00 -1.12418e+01 -1.26411e-02
       C  1.56069e-01 -7.47923e+00 -7.34751e-02
       C  1.53470e+00 -7.46554e+00 -1.02439e-01
       C -5.88793e-01 -8.77244e+00 -1.70353e-01
       C  2.29770e+00 -8.76665e+00 -1.06150e-01
       C  2.07468e-01 -5.00313e+00 -9.86558e-03
       C  1.60046e+00 -4.95121e+00 -7.31593e-02
       C -5.19985e-01 -6.28693e+00 -1.42793e-01
       C  2.35059e+00 -6.23639e+00  1.22717e-03
       C  1.29315e-01 -2.51330e+00  2.74563e-02
       C  1.51757e+00 -2.54501e+00 -1.64751e-02
       C -5.48459e-01 -3.78003e+00 -8.04998e-02
       C  2.26847e+00 -3.78003e+00 -1.62844e-01
       C  4.45240e+00 -5.80399e-02 -7.99762e-02
       C  5.83524e+00 -1.24810e-01  3.34369e-03
       C  3.73889e+00 -1.19522e+00 -1.16488e-01
       C  6.62783e+00 -1.36335e+00 -6.71277e-02
       C  4.40621e+00 -1.73643e+01 -5.64859e-02
       C  5.86796e+00 -1.73799e+01 -7.18202e-02
       C  3.70166e+00 -1.85549e+01 -1.17076e-01
       C  6.57167e+00 -1.85639e+01  1.75104e-01
       C  4.46420e+00 -1.48849e+01  6.65020e-03
       C  5.84748e+00 -1.49155e+01 -5.14483e-02
       C  3.64528e+00 -1.60826e+01 -2.86880e-02
       C  6.59188e+00 -1.61364e+01  8.07291e-02
       C  4.41170e+00 -1.24463e+01 -1.12525e-01
       C  5.90791e+00 -1.24439e+01 -1.89960e-01
       C  3.69947e+00 -1.37106e+01 -6.32262e-02
       C  6.60984e+00 -1.36191e+01 -1.38101e-01
       C  8.70547e+00 -4.10466e-02 -5.10263e-02
       C  1.01740e+01 -7.83360e-02 -1.10492e-01
       C  8.00760e+00 -1.31133e+00  4.00447e-02
       C  1.07701e+01 -1.33232e+00 -1.30416e-01
       C  8.73851e+00 -1.73091e+01  2.65990e-01
       C  1.01122e+01 -1.73295e+01  1.24085e-01
       C  7.96573e+00 -1.86624e+01  2.93461e-02
       C  1.07835e+01 -1.86085e+01 -5.67780e-02
       C  8.66482e+00 -1.49079e+01 -4.65739e-02
       C  1.02478e+01 -1.49555e+01 -2.25642e-02
       C  8.04815e+00 -1.60982e+01  1.55514e-03
       C  1.08782e+01 -1.61612e+01 -2.88913e-02
       C  8.74992e+00 -1.24504e+01  1.22144e-01
       C  1.01259e+01 -1.23594e+01 -1.95723e-02
       C  7.99926e+00 -1.36435e+01 -5.09311e-02
       C  1.09496e+01 -1.36676e+01 -7.47279e-02
       C  1.29834e+01 -7.19371e-03 -1.11924e-01
       C  1.43987e+01 -4.87285e-02  2.55651e-02
       C  1.23538e+01 -1.28499e+00  2.98569e-02
       C  1.50933e+01 -1.24878e+00 -3.01550e-02
       C  1.29815e+01 -1.73855e+01 -1.00367e-01
       C  1.44623e+01 -1.73643e+01 -2.75314e-02
       C  1.21786e+01 -1.85612e+01 -1.78303e-01
       C  1.51091e+01 -1.86024e+01  3.87157e-02
       C  1.29725e+01 -1.49532e+01 -1.60103e-01
       C  1.43950e+01 -1.49313e+01 -8.39018e-02
       C  1.22416e+01 -1.61951e+01 -1.61733e-01
       C  1.51079e+01 -1.61781e+01 -1.87708e-01
       C  1.29945e+01 -1.23758e+01  7.69886e-03
       C  1.43792e+01 -1.23919e+01 -7.98589e-02
       C  1.23335e+01 -1.35846e+01 -5.77798e-02
       C  1.50394e+01 -1.36504e+01 -6.17967e-02
       C  1.68984e-01 -8.85887e-02  2.28025e-02
       C  1.53573e+00 -3.44202e-02 -2.28531e-02
       C -6.25078e-01 -1.31347e+00  4.08384e-02
       C  2.27428e+00 -1.27401e+00 -4.47736e-02
       C  1.15320e-01 -1.73355e+01 -2.22908e-01
       C  1.55412e+00 -1.72954e+01 -1.15555e-01
       C -6.75764e-01 -1.85905e+01 -7.52631e-02
       C  2.25086e+00 -1.86161e+01 -1.92538e-01
       C  1.28898e-01 -1.48539e+01 -1.62139e-01
       C  1.57282e+00 -1.49075e+01 -9.88611e-02
       C -5.73508e-01 -1.61352e+01 -1.82970e-01
       C  2.32397e+00 -1.61213e+01 -1.52431e-01
       C  1.74653e-01 -1.24687e+01 -6.31873e-02
       C  1.48374e+00 -1.24256e+01  7.00630e-02
       C -6.61231e-01 -1.36756e+01 -1.07233e-01
       C  2.24413e+00 -1.37551e+01  3.32326e-02
       H  5.89832e+00 -1.02471e+01  5.70082e+00
       C  5.49722e+00 -9.45671e+00  5.05527e+00
       C  5.88561e+00 -8.12405e+00  5.11489e+00
       H  7.07545e+00 -7.95818e+00  5.47058e+00
       C  4.99271e+00 -7.08224e+00  4.60057e+00
       H  5.24083e+00 -6.02714e+00  5.06579e+00
       C  3.93917e+00 -7.40252e+00  3.89457e+00
       H  3.31603e+00 -6.64950e+00  3.51568e+00
       C  3.75108e+00 -8.75291e+00  3.48093e+00
       H  2.77618e+00 -8.94472e+00  2.82372e+00
       C  4.51997e+00 -9.84401e+00  4.05437e+00
       H  4.26853e+00 -1.09431e+01  3.68081e+00
