   40
Geometry Step: 0
    C    -46.71158295    -35.11813187    -70.19707637      4.10598919
    C    -47.56269458    -34.83949312    -71.29224096      3.95372831
    C    -47.19895342    -35.19291556    -72.56810909      4.13384725
    C    -45.90332229    -35.75397038    -72.81049129      3.95798736
    C    -45.03906235    -35.96719595    -71.71539471      4.11234340
    C    -45.43479900    -35.64423901    -70.38347347      4.06639028
    H    -47.03591426    -34.76743835    -69.25474381      0.91067588
    H    -47.81106020    -34.96597875    -73.44728503      0.92541430
    H    -44.02794153    -36.37669951    -71.94625094      0.93170863
    H    -44.81301524    -35.80247019    -69.52669056      0.91407695
    C    -45.42885194    -36.20394904    -74.14502366      4.05063360
    H    -46.28995378    -36.40173921    -74.75015405      0.92260585
    H    -44.73303059    -37.06134016    -74.06842198      0.93391394
    C    -48.94622790    -34.18633556    -71.13300889      4.05826173
    H    -49.34588160    -34.03231575    -72.13550090      0.93653988
    H    -49.59189055    -34.83342747    -70.56924419      0.91531967
    S    -44.57414475    -34.86327797    -75.09465909      6.18632026
    S    -48.89808829    -32.57241555    -70.22960953      6.18840079
    C    -43.37264668    -34.15456478    -73.84293746      4.04192782
    H    -43.21725341    -34.94099583    -73.10411913      0.92456124
    H    -42.41718401    -34.02974718    -74.38438942      0.93689299
    C    -48.05802848    -31.30323839    -71.34788893      4.05746280
    H    -48.21287410    -30.32974610    -70.90052002      0.92301282
    H    -48.64732420    -31.31971304    -72.27075715      0.93680327
    C    -46.55051335    -31.61560210    -71.60828514      4.10713925
    H    -46.50295153    -32.60043704    -72.04786214      0.91286888
    H    -46.21822068    -30.93178927    -72.40311340      0.93785394
    C    -43.87855067    -32.87480094    -73.22452937      4.11002578
    H    -44.96999204    -32.77861954    -73.18759736      0.92192268
    H    -43.48743548    -31.98349705    -73.78971860      0.93864826
    C    -43.38074799    -32.61335303    -71.77394072      3.98967980
    C    -42.08673365    -32.93876255    -71.41452691      4.15936232
    C    -44.20187155    -32.11955768    -70.70450274      4.06293157
    H    -41.27037648    -33.36037545    -72.02225733      0.89632319
    C    -43.48089516    -32.08978685    -69.52691585      3.94059082
    C    -45.55824688    -31.55318226    -70.48673239      3.97692184
    C    -45.79488844    -31.23221717    -69.18675415      4.12847474
    S    -41.83425842    -32.58820752    -69.70305444      5.98917510
    S    -44.35174804    -31.44096386    -68.15131831      6.01076176
    H    -46.71809237    -30.85968278    -68.74161519      0.89250186
