3
# CELL(abcABC):   25.29166    25.29166    25.29166    90.00000    90.00000    90.00000  Step:           0  Bead:       0 x_centroid{atomic_unit}  cell{atomic_unit}
       O  1.02130e+00 -1.84220e+00 -4.09276e-01
       H  3.47444e-01 -2.37735e+00 -2.03854e+00
       H  7.99951e-02 -3.68232e-01  1.74386e-01
3
# CELL(abcABC):   25.29166    25.29166    25.29166    90.00000    90.00000    90.00000  Step:          20  Bead:       0 x_centroid{atomic_unit}  cell{atomic_unit}
       O  1.01254e+00 -1.85116e+00 -3.91895e-01
       H  5.16678e-01 -2.23293e+00 -1.97266e+00
       H  4.98084e-02 -3.70389e-01 -1.67402e-01
3
# CELL(abcABC):   25.29166    25.29166    25.29166    90.00000    90.00000    90.00000  Step:          40  Bead:       0 x_centroid{atomic_unit}  cell{atomic_unit}
       O  1.01837e+00 -1.85650e+00 -3.99305e-01
       H  5.23818e-01 -2.11575e+00 -2.07253e+00
       H -4.98662e-02 -4.02909e-01  5.00906e-02
3
# CELL(abcABC):   25.29166    25.29166    25.29166    90.00000    90.00000    90.00000  Step:          60  Bead:       0 x_centroid{atomic_unit}  cell{atomic_unit}
       O  9.96930e-01 -1.84402e+00 -4.25966e-01
       H  6.26121e-01 -2.22185e+00 -2.18335e+00
       H  1.88189e-01 -4.94871e-01  5.84100e-01
3
# CELL(abcABC):   25.29166    25.29166    25.29166    90.00000    90.00000    90.00000  Step:          80  Bead:       0 x_centroid{atomic_unit}  cell{atomic_unit}
       O  1.02806e+00 -1.82535e+00 -4.31273e-01
       H  2.98306e-01 -2.29676e+00 -2.01974e+00
       H  2.18604e-02 -7.16337e-01  5.04750e-01
3
# CELL(abcABC):   25.29166    25.29166    25.29166    90.00000    90.00000    90.00000  Step:         100  Bead:       0 x_centroid{atomic_unit}  cell{atomic_unit}
       O  1.05015e+00 -1.81115e+00 -4.51024e-01
       H  5.14127e-02 -2.35120e+00 -1.77831e+00
       H -8.18111e-02 -8.87253e-01  5.76822e-01
