17
# H interstitial in a-Fe positions{angstrom} cell{angstrom} CELL{abcABC}: 5.74 5.74 5.74 90 90 90
 Fe   -0.00000   -0.01541   -0.00885
 Fe    1.35315    1.39055    1.43500
 Fe    2.87000    0.00636    0.00583
 Fe    4.38685    1.39055    1.43500
 Fe   -0.00000    2.87379   -0.00113
 Fe    1.44083    4.29864    1.43500
 Fe    2.87000    2.91445   -0.08185
 Fe    4.29917    4.29864    1.43500
 Fe    0.00000   -0.01541    2.87885
 Fe    1.43387    1.43121    4.30500
 Fe    2.87000    0.00636    2.86417
 Fe    4.30613    1.43121    4.30500
 Fe   -0.00000    2.87379    2.87113
 Fe    1.42615    4.32041    4.30500
 Fe    2.87000    2.91445    2.95185
 Fe    4.31385    4.32041    4.30500
  H    2.87000    2.15250    1.43500
