1
# CELL(abcABC):  188.97261   188.97261   188.97261    90.00000    90.00000    90.00000  Step:           0  Bead:       0 momenta{atomic_unit}  cell{atomic_unit}
       H -1.81067e+00  2.41073e-01 -1.26140e-01
1
# CELL(abcABC):  188.97261   188.97261   188.97261    90.00000    90.00000    90.00000  Step:           1  Bead:       0 momenta{atomic_unit}  cell{atomic_unit}
       H -1.90039e+00  3.82329e-01 -8.24231e-01
1
# CELL(abcABC):  188.97261   188.97261   188.97261    90.00000    90.00000    90.00000  Step:           2  Bead:       0 momenta{atomic_unit}  cell{atomic_unit}
       H -1.61721e+00  4.29840e-01 -6.54362e-01
1
# CELL(abcABC):  188.97261   188.97261   188.97261    90.00000    90.00000    90.00000  Step:           3  Bead:       0 momenta{atomic_unit}  cell{atomic_unit}
       H -1.44319e+00  7.60434e-01 -8.66709e-01
1
# CELL(abcABC):  188.97261   188.97261   188.97261    90.00000    90.00000    90.00000  Step:           4  Bead:       0 momenta{atomic_unit}  cell{atomic_unit}
       H -1.03975e+00  9.98777e-01 -1.05373e+00
1
# CELL(abcABC):  188.97261   188.97261   188.97261    90.00000    90.00000    90.00000  Step:           5  Bead:       0 momenta{atomic_unit}  cell{atomic_unit}
       H -9.62313e-01  1.14566e+00 -6.18250e-01
1
# CELL(abcABC):  188.97261   188.97261   188.97261    90.00000    90.00000    90.00000  Step:           6  Bead:       0 momenta{atomic_unit}  cell{atomic_unit}
       H -1.25487e+00  1.26024e+00 -1.13936e+00
1
# CELL(abcABC):  188.97261   188.97261   188.97261    90.00000    90.00000    90.00000  Step:           7  Bead:       0 momenta{atomic_unit}  cell{atomic_unit}
       H -1.22072e+00  8.98108e-01 -9.46539e-01
1
# CELL(abcABC):  188.97261   188.97261   188.97261    90.00000    90.00000    90.00000  Step:           8  Bead:       0 momenta{atomic_unit}  cell{atomic_unit}
       H -1.02717e+00  8.24088e-01 -8.64942e-01
1
# CELL(abcABC):  188.97261   188.97261   188.97261    90.00000    90.00000    90.00000  Step:           9  Bead:       0 momenta{atomic_unit}  cell{atomic_unit}
       H -6.75382e-01  6.81135e-01 -1.00446e+00
