96
# CELL(abcABC):   12.67485    12.67485    12.67485    90.00000    90.00000    90.00000  cell{angstrom}  Traj: positions{angstrom} Step:        1300  Bead:       0 
       O  7.86472e-01 -5.76768e+00 -2.03874e+00
       H  1.37833e+00 -6.44470e+00 -2.06390e+00
       H  8.18860e-01 -5.40093e+00 -2.89168e+00
       O -1.91369e+00  1.36367e+00 -2.13881e+00
       H -2.01134e+00  1.79790e+00 -3.00717e+00
       H -2.16049e+00  4.77054e-01 -2.22644e+00
       O -5.29556e+00 -4.96643e+00  3.40739e+00
       H -5.01471e+00 -4.74786e+00  4.30550e+00
       H -5.53233e+00 -4.11910e+00  3.13395e+00
       O -3.94991e+00  5.50841e+00  2.27536e+00
       H -4.46205e+00  5.22062e+00  1.54568e+00
       H -4.29786e+00  6.27078e+00  2.63563e+00
       O -3.83141e+00 -5.52647e-01  1.87581e+00
       H -3.38204e+00  1.99964e-01  2.22791e+00
       H -4.63676e+00 -2.63531e-01  1.43650e+00
       O  2.19245e+00  5.18958e+00  3.89888e+00
       H  2.44302e+00  6.09420e+00  3.74427e+00
       H  1.74052e+00  4.93579e+00  4.69159e+00
       O -1.87230e-01  4.26857e+00 -2.47749e+00
       H -8.23726e-01  4.83316e+00 -2.87233e+00
       H -2.16530e-01  4.40570e+00 -1.51890e+00
       O -4.20202e+00  3.08015e+00 -1.47148e+00
       H -4.86321e+00  2.42069e+00 -1.45344e+00
       H -3.43282e+00  2.63892e+00 -1.16898e+00
       O -4.95347e+00  3.65442e+00  3.99093e+00
       H -4.41259e+00  4.41313e+00  3.67141e+00
       H -4.80358e+00  3.46164e+00  4.91381e+00
       O -1.86084e+00  3.52180e-01 -4.67022e+00
       H -1.11219e+00  7.35611e-01 -5.12454e+00
       H -1.53421e+00 -5.88210e-01 -4.59781e+00
       O  4.54006e+00 -4.00672e+00  8.43507e+00
       H  4.52479e+00 -4.44339e+00  9.31799e+00
       H  5.13923e+00 -3.36135e+00  8.53305e+00
       O -1.25263e+00 -3.60950e+00  5.78371e+00
       H -9.51925e-01 -2.72007e+00  5.70958e+00
       H -6.38756e-01 -4.04964e+00  5.19023e+00
       O  3.45389e-01 -1.53460e+00  4.93173e-01
       H  1.29900e-01 -1.88284e+00 -3.73808e-01
       H  8.82749e-01 -2.14859e+00  9.63536e-01
       O  4.24710e+00  2.81063e+00  3.81076e+00
       H  4.97858e+00  3.26480e+00  4.15421e+00
       H  3.46681e+00  3.41129e+00  4.03473e+00
       O  9.77638e+00  2.18169e+00  1.45737e+00
       H  9.87489e+00  3.11477e+00  1.36818e+00
       H  9.81409e+00  1.82518e+00  5.72308e-01
       O  8.41430e-01  3.79599e-01  3.18052e+00
       H  1.71957e+00  7.14375e-01  3.33716e+00
       H  5.15468e-01  6.11377e-01  2.31391e+00
       O -1.18146e+00  7.21968e+00  2.03538e-01
       H -1.17230e+00  8.16035e+00  1.43289e-01
       H -5.57567e-01  6.95783e+00 -4.45150e-01
       O  3.96335e+00  2.72959e+00  7.47563e+00
       H  3.41408e+00  3.07110e+00  8.18588e+00
       H  3.56520e+00  3.00844e+00  6.61914e+00
       O  7.15355e-01 -3.67819e-01 -2.81273e+00
       H  1.13282e+00  5.05554e-01 -3.11023e+00
       H  6.81968e-02 -9.09017e-02 -2.15407e+00
       O  6.04620e+00 -2.60360e+00  1.17047e+00
       H  5.63241e+00 -3.24566e+00  7.01363e-01
       H  6.31415e+00 -1.94216e+00  5.32383e-01
       O -2.83845e+00 -3.02829e+00 -9.13256e-01
       H -3.21506e+00 -2.49673e+00 -2.35947e-01
       H -3.44677e+00 -3.65302e+00 -1.21725e+00
       O  3.89946e+00  2.37857e+00 -1.50112e+00
       H  3.91320e+00  1.65338e+00 -9.85359e-01
       H  4.52853e+00  2.11005e+00 -2.14416e+00
       O  7.21477e+00 -5.94093e-01 -9.32972e-01
       H  7.66408e+00 -3.00563e-01 -1.69727e+00
       H  6.67449e+00  1.14056e-01 -6.51042e-01
       O  6.06546e+00  1.58959e+00  3.62457e-01
       H  5.56160e+00  1.27163e+00  1.10524e+00
       H  6.14598e+00  2.52856e+00  6.93520e-01
       O  1.00595e-02  4.15138e+00  4.59826e-01
       H  6.37633e-01  3.52001e+00  8.51309e-01
       H -2.98960e-01  4.88329e+00  1.05474e+00
       O  5.17672e-01 -1.46621e-01 -6.34988e+00
       H  2.52232e-01 -4.03091e-02 -7.23292e+00
       H  1.38373e+00  2.28548e-01 -6.31108e+00
       O  1.53010e+00  6.18554e+00  6.22020e+00
       H  7.36507e-01  6.64261e+00  6.55364e+00
       H  2.29318e+00  6.74741e+00  6.15082e+00
       O  8.29328e+00  3.52689e-01 -3.45598e+00
       H  8.65792e+00 -5.52257e-02 -4.24637e+00
       H  8.67398e+00  1.23590e+00 -3.35739e+00
       O  2.53122e+00  4.33245e-01 -1.46927e-01
       H  1.93970e+00 -2.29668e-01 -4.24455e-01
       H  2.27614e+00  5.83156e-01  7.39031e-01
       O  2.37318e-01 -2.76922e+00  3.26298e+00
       H -5.94250e-01 -2.97538e+00  2.89393e+00
       H  6.25560e-01 -1.89369e+00  3.07490e+00
       O  7.85327e+00  6.48790e+00 -3.41336e-01
       H  8.64117e+00  6.50070e+00  2.02252e-01
       H  7.84439e+00  5.65334e+00 -8.77573e-01
       O  7.29351e+00  1.56624e+00  5.81378e+00
       H  6.48962e+00  1.10823e+00  5.89453e+00
       H  7.30491e+00  1.78976e+00  4.94559e+00
