9
CELL(abcABC):  130.18034   170.29206   240.21758    90.00000    90.00000    90.00000  cell{atomic_unit}  Traj: positions{angstrom} Step:  12  Bead: 0
O -0.0090103919768718329641465913937282 -1.0286525912377360025828920697677 0.31011666010936911330730936242617
H -0.84539070490470680230288280654349 -1.0428108783717564556070556136547 -0.15564037438587852157922952756053
H 0.66576175467037157496008603629889 -1.1604546828304098671225119687733 -0.36964113171469809016045360294811
O 1.5271535148424255634580504192854 1.2644398418324058752659766469151 0.84178442871556791171627764924779
H 1.8535379602504398199869228847092 1.3427458222870713999697045437642 1.7381018638977077106488877689117
H 0.82697352731269535563995987104136 0.59459192810402072826292396712233 0.87992587361103935528205965965753
O 2.2991676449915612323593450128101 -0.50278767615649910815989187540254 -1.1703649292635247558536093492876
H 3.0555753363614504003464844572591 -0.45718726635640694055950916663278 -1.7520453850133628215246517356718
H 2.3566553513966512767296990205068 0.25629858570878755186228659113112 -0.57197771233107363997305583325215
