6
# CELL(abcABC):  200.00000   200.00000   200.00000    90.00000    90.00000    90.00000  Step:          67  Bead:       0 positions{angstrom}  cell{atomic_unit}
       O  1.36346e-01 -9.67442e-01  2.40661e-01
       H -7.79751e-01 -8.69284e-01  3.06661e-02
       H  5.34721e-01 -1.44347e+00 -4.71854e-01
       O  1.42482e+00  1.38927e+00  9.26440e-01
       H  1.72033e+00  1.29319e+00  1.81419e+00
       H  9.82564e-01  5.67597e-01  7.04541e-01
