125
# CELL(abcABC):   14.34366105636912  14.34366105636912  14.34366105636912  60.0  60.0  60.0 Step: 4  Bead: 0 positions{angstrom} cell{angstrom}
Si       0.00000000       0.00000000       0.00000000
Si       2.02850000       2.02850000       0.00000000
Si       4.05700000       4.05700000       0.00000000
Si       6.08550000       6.08550000       0.00000000
Si       8.11400000       8.11400000       0.00000000
Si       2.02850000       0.00000000       2.02850000
Mg       4.05700000       2.02850000       2.02850000
Mg       6.08550000       4.05700000       2.02850000
Mg       8.11400000       6.08550000       2.02850000
Mg      10.14250000       8.11400000       2.02850000
Mg       4.05700000       0.00000000       4.05700000
Mg       6.08550000       2.02850000       4.05700000
Al       8.11400000       4.05700000       4.05700000
Al      10.14250000       6.08550000       4.05700000
Al      12.17100000       8.11400000       4.05700000
Al       6.08550000       0.00000000       6.08550000
Al       8.11400000       2.02850000       6.08550000
Al      10.14250000       4.05700000       6.08550000
Al      12.17100000       6.08550000       6.08550000
Al      14.19950000       8.11400000       6.08550000
Al       8.11400000       0.00000000       8.11400000
Al      10.14250000       2.02850000       8.11400000
Al      12.17100000       4.05700000       8.11400000
Al      14.19950000       6.08550000       8.11400000
Al      16.22800000       8.11400000       8.11400000
Al       0.00000000       2.02850000       2.02850000
Al       2.02850000       4.05700000       2.02850000
Al       4.05700000       6.08550000       2.02850000
Al       6.08550000       8.11400000       2.02850000
Al       8.11400000      10.14250000       2.02850000
Al       2.02850000       2.02850000       4.05700000
Al       4.05700000       4.05700000       4.05700000
Al       6.08550000       6.08550000       4.05700000
Al       8.11400000       8.11400000       4.05700000
Al      10.14250000      10.14250000       4.05700000
Al       4.05700000       2.02850000       6.08550000
Al       6.08550000       4.05700000       6.08550000
Al       8.11400000       6.08550000       6.08550000
Al      10.14250000       8.11400000       6.08550000
Al      12.17100000      10.14250000       6.08550000
Al       6.08550000       2.02850000       8.11400000
Al       8.11400000       4.05700000       8.11400000
Al      10.14250000       6.08550000       8.11400000
Al      12.17100000       8.11400000       8.11400000
Al      14.19950000      10.14250000       8.11400000
Al       8.11400000       2.02850000      10.14250000
Al      10.14250000       4.05700000      10.14250000
Al      12.17100000       6.08550000      10.14250000
Al      14.19950000       8.11400000      10.14250000
Al      16.22800000      10.14250000      10.14250000
Al       0.00000000       4.05700000       4.05700000
Al       2.02850000       6.08550000       4.05700000
Al       4.05700000       8.11400000       4.05700000
Al       6.08550000      10.14250000       4.05700000
Al       8.11400000      12.17100000       4.05700000
Al       2.02850000       4.05700000       6.08550000
Al       4.05700000       6.08550000       6.08550000
Al       6.08550000       8.11400000       6.08550000
Al       8.11400000      10.14250000       6.08550000
Al      10.14250000      12.17100000       6.08550000
Al       4.05700000       4.05700000       8.11400000
Al       6.08550000       6.08550000       8.11400000
Al       8.11400000       8.11400000       8.11400000
Al      10.14250000      10.14250000       8.11400000
Al      12.17100000      12.17100000       8.11400000
Al       6.08550000       4.05700000      10.14250000
Al       8.11400000       6.08550000      10.14250000
Al      10.14250000       8.11400000      10.14250000
Al      12.17100000      10.14250000      10.14250000
Al      14.19950000      12.17100000      10.14250000
Al       8.11400000       4.05700000      12.17100000
Al      10.14250000       6.08550000      12.17100000
Al      12.17100000       8.11400000      12.17100000
Al      14.19950000      10.14250000      12.17100000
Al      16.22800000      12.17100000      12.17100000
Al       0.00000000       6.08550000       6.08550000
Al       2.02850000       8.11400000       6.08550000
Al       4.05700000      10.14250000       6.08550000
Al       6.08550000      12.17100000       6.08550000
Al       8.11400000      14.19950000       6.08550000
Al       2.02850000       6.08550000       8.11400000
Al       4.05700000       8.11400000       8.11400000
Al       6.08550000      10.14250000       8.11400000
Al       8.11400000      12.17100000       8.11400000
Al      10.14250000      14.19950000       8.11400000
Al       4.05700000       6.08550000      10.14250000
Al       6.08550000       8.11400000      10.14250000
Al       8.11400000      10.14250000      10.14250000
Al      10.14250000      12.17100000      10.14250000
Al      12.17100000      14.19950000      10.14250000
Al       6.08550000       6.08550000      12.17100000
Al       8.11400000       8.11400000      12.17100000
Al      10.14250000      10.14250000      12.17100000
Al      12.17100000      12.17100000      12.17100000
Al      14.19950000      14.19950000      12.17100000
Al       8.11400000       6.08550000      14.19950000
Al      10.14250000       8.11400000      14.19950000
Al      12.17100000      10.14250000      14.19950000
Al      14.19950000      12.17100000      14.19950000
Al      16.22800000      14.19950000      14.19950000
Al       0.00000000       8.11400000       8.11400000
Al       2.02850000      10.14250000       8.11400000
Al       4.05700000      12.17100000       8.11400000
Al       6.08550000      14.19950000       8.11400000
Al       8.11400000      16.22800000       8.11400000
Al       2.02850000       8.11400000      10.14250000
Al       4.05700000      10.14250000      10.14250000
Al       6.08550000      12.17100000      10.14250000
Al       8.11400000      14.19950000      10.14250000
Al      10.14250000      16.22800000      10.14250000
Al       4.05700000       8.11400000      12.17100000
Al       6.08550000      10.14250000      12.17100000
Al       8.11400000      12.17100000      12.17100000
Al      10.14250000      14.19950000      12.17100000
Al      12.17100000      16.22800000      12.17100000
Al       6.08550000       8.11400000      14.19950000
Al       8.11400000      10.14250000      14.19950000
Al      10.14250000      12.17100000      14.19950000
Al      12.17100000      14.19950000      14.19950000
Al      14.19950000      16.22800000      14.19950000
Al       8.11400000       8.11400000      16.22800000
Al      10.14250000      10.14250000      16.22800000
Al      12.17100000      12.17100000      16.22800000
V       14.19950000      14.19950000      16.22800000
V       16.22800000      16.22800000      16.22800000
