14
# positions{angstrom}
O          0.54045       -0.97485       -0.21658
O          2.92484       -0.83925        0.15240
H          0.18386       -1.25804       -1.07875
H          1.74329       -0.90928       -0.10040
H          3.29707       -1.59324        0.64725
H          3.53033       -0.60814       -0.57608
H          0.04233       -0.19486        0.09228
O          2.63827       -0.76870        2.50742
O          0.25387       -0.90430        2.13842
H         -0.24423       -0.12430        2.44732
H          3.24377       -0.53750        1.77892
H          1.45677       -0.83870        2.25462
H         -0.10263       -1.18740        1.27622
H          3.01057       -1.52260        3.00232
