1
# CELL(abcABC):    1.00000     1.00000     1.00000    90.00000    90.00000    90.00000  Step:           0  Bead:       0 positions{atomic_unit}  cell{atomic_unit}
       H  0.00000e+00  0.00000e+00  0.00000e+00
1
# CELL(abcABC):    1.00000     1.00000     0.99778    90.00000    90.00000    90.00000  Step:           1  Bead:       0 positions{atomic_unit}  cell{atomic_unit}
       H -1.99998e-03  1.64441e-02  2.06700e-02
1
# CELL(abcABC):    1.00000     1.00000     0.99590    90.00000    90.00000    90.00000  Step:           2  Bead:       0 positions{atomic_unit}  cell{atomic_unit}
       H -2.41139e-03  3.26486e-02  4.20637e-02
1
# CELL(abcABC):    1.00000     1.00000     0.99372    90.00000    90.00000    90.00000  Step:           3  Bead:       0 positions{atomic_unit}  cell{atomic_unit}
       H -5.73508e-03  4.61543e-02  6.56897e-02
1
# CELL(abcABC):    1.00000     1.00000     0.99057    90.00000    90.00000    90.00000  Step:           4  Bead:       0 positions{atomic_unit}  cell{atomic_unit}
       H -8.76529e-03  5.84891e-02  8.88287e-02
1
# CELL(abcABC):    1.00000     1.00000     0.98754    90.00000    90.00000    90.00000  Step:           5  Bead:       0 positions{atomic_unit}  cell{atomic_unit}
       H -1.32820e-02  7.43414e-02  1.12658e-01
1
# CELL(abcABC):    1.00000     1.00000     0.98412    90.00000    90.00000    90.00000  Step:           6  Bead:       0 positions{atomic_unit}  cell{atomic_unit}
       H -1.79714e-02  9.21027e-02  1.37777e-01
1
# CELL(abcABC):    1.00000     1.00000     0.98081    90.00000    90.00000    90.00000  Step:           7  Bead:       0 positions{atomic_unit}  cell{atomic_unit}
       H -2.01188e-02  1.10278e-01  1.62203e-01
1
# CELL(abcABC):    1.00000     1.00000     0.97714    90.00000    90.00000    90.00000  Step:           8  Bead:       0 positions{atomic_unit}  cell{atomic_unit}
       H -2.11343e-02  1.27838e-01  1.84316e-01
1
# CELL(abcABC):    1.00000     1.00000     0.97378    90.00000    90.00000    90.00000  Step:           9  Bead:       0 positions{atomic_unit}  cell{atomic_unit}
       H -2.08189e-02  1.46560e-01  2.06508e-01
1
# CELL(abcABC):    1.00000     1.00000     0.97003    90.00000    90.00000    90.00000  Step:          10  Bead:       0 positions{atomic_unit}  cell{atomic_unit}
       H -2.07321e-02  1.65311e-01  2.29021e-01
1
# CELL(abcABC):    1.00000     1.00000     0.96556    90.00000    90.00000    90.00000  Step:          11  Bead:       0 positions{atomic_unit}  cell{atomic_unit}
       H -2.07625e-02  1.84300e-01  2.50008e-01
1
# CELL(abcABC):    1.00000     1.00000     0.95968    90.00000    90.00000    90.00000  Step:          12  Bead:       0 positions{atomic_unit}  cell{atomic_unit}
       H -2.06551e-02  2.01343e-01  2.71885e-01
1
# CELL(abcABC):    1.00000     1.00000     0.95116    90.00000    90.00000    90.00000  Step:          13  Bead:       0 positions{atomic_unit}  cell{atomic_unit}
       H -1.98023e-02  2.19132e-01  2.92918e-01
1
# CELL(abcABC):    1.00000     1.00000     0.94060    90.00000    90.00000    90.00000  Step:          14  Bead:       0 positions{atomic_unit}  cell{atomic_unit}
       H -1.83010e-02  2.36233e-01  3.13429e-01
1
# CELL(abcABC):    1.00000     1.00000     0.93002    90.00000    90.00000    90.00000  Step:          15  Bead:       0 positions{atomic_unit}  cell{atomic_unit}
       H -1.58738e-02  2.51498e-01  3.34634e-01
1
# CELL(abcABC):    1.00000     1.00000     0.91948    90.00000    90.00000    90.00000  Step:          16  Bead:       0 positions{atomic_unit}  cell{atomic_unit}
       H -1.31197e-02  2.66548e-01  3.54903e-01
1
# CELL(abcABC):    1.00000     1.00000     0.90749    90.00000    90.00000    90.00000  Step:          17  Bead:       0 positions{atomic_unit}  cell{atomic_unit}
       H -9.85199e-03  2.82124e-01  3.75699e-01
1
# CELL(abcABC):    1.00000     1.00000     0.89432    90.00000    90.00000    90.00000  Step:          18  Bead:       0 positions{atomic_unit}  cell{atomic_unit}
       H -7.49967e-03  2.98726e-01  3.94080e-01
1
# CELL(abcABC):    1.00000     1.00000     0.88277    90.00000    90.00000    90.00000  Step:          19  Bead:       0 positions{atomic_unit}  cell{atomic_unit}
       H -3.74670e-03  3.14493e-01  4.12026e-01
1
# CELL(abcABC):    1.00000     1.00000     0.87162    90.00000    90.00000    90.00000  Step:          20  Bead:       0 positions{atomic_unit}  cell{atomic_unit}
       H -4.67888e-04  3.29909e-01  4.28035e-01
1
# CELL(abcABC):    1.00000     1.00000     0.85982    90.00000    90.00000    90.00000  Step:          21  Bead:       0 positions{atomic_unit}  cell{atomic_unit}
       H  2.03667e-03  3.45830e-01  4.43285e-01
1
# CELL(abcABC):    1.00000     1.00000     0.84994    90.00000    90.00000    90.00000  Step:          22  Bead:       0 positions{atomic_unit}  cell{atomic_unit}
       H  6.25160e-03  3.63053e-01  4.59297e-01
1
# CELL(abcABC):    1.00000     1.00000     0.84077    90.00000    90.00000    90.00000  Step:          23  Bead:       0 positions{atomic_unit}  cell{atomic_unit}
       H  1.00086e-02  3.80291e-01  4.76202e-01
1
# CELL(abcABC):    1.00000     1.00000     0.83120    90.00000    90.00000    90.00000  Step:          24  Bead:       0 positions{atomic_unit}  cell{atomic_unit}
       H  1.21789e-02  3.97315e-01  4.89374e-01
1
# CELL(abcABC):    1.00000     1.00000     0.82258    90.00000    90.00000    90.00000  Step:          25  Bead:       0 positions{atomic_unit}  cell{atomic_unit}
       H  1.43935e-02  4.14132e-01  5.01942e-01
1
# CELL(abcABC):    1.00000     1.00000     0.81442    90.00000    90.00000    90.00000  Step:          26  Bead:       0 positions{atomic_unit}  cell{atomic_unit}
       H  1.75054e-02  4.32347e-01  5.12845e-01
1
# CELL(abcABC):    1.00000     1.00000     0.80469    90.00000    90.00000    90.00000  Step:          27  Bead:       0 positions{atomic_unit}  cell{atomic_unit}
       H  2.18473e-02  4.53057e-01  5.24253e-01
1
# CELL(abcABC):    1.00000     1.00000     0.79540    90.00000    90.00000    90.00000  Step:          28  Bead:       0 positions{atomic_unit}  cell{atomic_unit}
       H  2.62753e-02  4.72516e-01  5.36001e-01
1
# CELL(abcABC):    1.00000     1.00000     0.78637    90.00000    90.00000    90.00000  Step:          29  Bead:       0 positions{atomic_unit}  cell{atomic_unit}
       H  3.06290e-02  4.91468e-01  5.45987e-01
1
# CELL(abcABC):    1.00000     1.00000     0.77899    90.00000    90.00000    90.00000  Step:          30  Bead:       0 positions{atomic_unit}  cell{atomic_unit}
       H  3.67451e-02  5.10372e-01  5.57613e-01
1
# CELL(abcABC):    1.00000     1.00000     0.77067    90.00000    90.00000    90.00000  Step:          31  Bead:       0 positions{atomic_unit}  cell{atomic_unit}
       H  4.33850e-02  5.29999e-01  5.69361e-01
1
# CELL(abcABC):    1.00000     1.00000     0.76425    90.00000    90.00000    90.00000  Step:          32  Bead:       0 positions{atomic_unit}  cell{atomic_unit}
       H  4.87859e-02  5.49698e-01  5.81763e-01
1
# CELL(abcABC):    1.00000     1.00000     0.75720    90.00000    90.00000    90.00000  Step:          33  Bead:       0 positions{atomic_unit}  cell{atomic_unit}
       H  5.23600e-02  5.69694e-01  5.91864e-01
1
# CELL(abcABC):    1.00000     1.00000     0.75240    90.00000    90.00000    90.00000  Step:          34  Bead:       0 positions{atomic_unit}  cell{atomic_unit}
       H  5.54982e-02  5.86828e-01  6.03969e-01
1
# CELL(abcABC):    1.00000     1.00000     0.74800    90.00000    90.00000    90.00000  Step:          35  Bead:       0 positions{atomic_unit}  cell{atomic_unit}
       H  5.92631e-02  6.05536e-01  6.16023e-01
1
# CELL(abcABC):    1.00000     1.00000     0.74146    90.00000    90.00000    90.00000  Step:          36  Bead:       0 positions{atomic_unit}  cell{atomic_unit}
       H  6.33854e-02  6.24108e-01  6.26693e-01
1
# CELL(abcABC):    1.00000     1.00000     0.73522    90.00000    90.00000    90.00000  Step:          37  Bead:       0 positions{atomic_unit}  cell{atomic_unit}
       H  6.65649e-02  6.41527e-01  6.37490e-01
1
# CELL(abcABC):    1.00000     1.00000     0.72807    90.00000    90.00000    90.00000  Step:          38  Bead:       0 positions{atomic_unit}  cell{atomic_unit}
       H  7.03792e-02  6.57173e-01  6.47566e-01
1
# CELL(abcABC):    1.00000     1.00000     0.72086    90.00000    90.00000    90.00000  Step:          39  Bead:       0 positions{atomic_unit}  cell{atomic_unit}
       H  7.67373e-02  6.71621e-01  6.56613e-01
1
# CELL(abcABC):    1.00000     1.00000     0.71285    90.00000    90.00000    90.00000  Step:          40  Bead:       0 positions{atomic_unit}  cell{atomic_unit}
       H  8.27751e-02  6.86367e-01  6.67237e-01
1
# CELL(abcABC):    1.00000     1.00000     0.70368    90.00000    90.00000    90.00000  Step:          41  Bead:       0 positions{atomic_unit}  cell{atomic_unit}
       H  8.88855e-02  7.01664e-01  6.76199e-01
1
# CELL(abcABC):    1.00000     1.00000     0.69617    90.00000    90.00000    90.00000  Step:          42  Bead:       0 positions{atomic_unit}  cell{atomic_unit}
       H  9.40088e-02  7.18357e-01  6.86156e-01
1
# CELL(abcABC):    1.00000     1.00000     0.68965    90.00000    90.00000    90.00000  Step:          43  Bead:       0 positions{atomic_unit}  cell{atomic_unit}
       H  9.95159e-02  7.34492e-01  6.97865e-01
1
# CELL(abcABC):    1.00000     1.00000     0.68319    90.00000    90.00000    90.00000  Step:          44  Bead:       0 positions{atomic_unit}  cell{atomic_unit}
       H  1.06130e-01  7.52066e-01  7.08972e-01
1
# CELL(abcABC):    1.00000     1.00000     0.67608    90.00000    90.00000    90.00000  Step:          45  Bead:       0 positions{atomic_unit}  cell{atomic_unit}
       H  1.11879e-01  7.67627e-01  7.20935e-01
1
# CELL(abcABC):    1.00000     1.00000     0.66911    90.00000    90.00000    90.00000  Step:          46  Bead:       0 positions{atomic_unit}  cell{atomic_unit}
       H  1.17120e-01  7.84369e-01  7.32161e-01
1
# CELL(abcABC):    1.00000     1.00000     0.66205    90.00000    90.00000    90.00000  Step:          47  Bead:       0 positions{atomic_unit}  cell{atomic_unit}
       H  1.19723e-01  7.99218e-01  7.41311e-01
1
# CELL(abcABC):    1.00000     1.00000     0.65434    90.00000    90.00000    90.00000  Step:          48  Bead:       0 positions{atomic_unit}  cell{atomic_unit}
       H  1.24676e-01  8.14176e-01  7.50538e-01
1
# CELL(abcABC):    1.00000     1.00000     0.64594    90.00000    90.00000    90.00000  Step:          49  Bead:       0 positions{atomic_unit}  cell{atomic_unit}
       H  1.30822e-01  8.30797e-01  7.58991e-01
1
# CELL(abcABC):    1.00000     1.00000     0.63607    90.00000    90.00000    90.00000  Step:          50  Bead:       0 positions{atomic_unit}  cell{atomic_unit}
       H  1.36177e-01  8.49704e-01  7.65972e-01
1
# CELL(abcABC):    1.00000     1.00000     0.62563    90.00000    90.00000    90.00000  Step:          51  Bead:       0 positions{atomic_unit}  cell{atomic_unit}
       H  1.41089e-01  8.69724e-01  7.74129e-01
1
# CELL(abcABC):    1.00000     1.00000     0.61550    90.00000    90.00000    90.00000  Step:          52  Bead:       0 positions{atomic_unit}  cell{atomic_unit}
       H  1.45581e-01  8.89021e-01  7.80604e-01
1
# CELL(abcABC):    1.00000     1.00000     0.60548    90.00000    90.00000    90.00000  Step:          53  Bead:       0 positions{atomic_unit}  cell{atomic_unit}
       H  1.49330e-01  9.07082e-01  7.85681e-01
1
# CELL(abcABC):    1.00000     1.00000     0.59500    90.00000    90.00000    90.00000  Step:          54  Bead:       0 positions{atomic_unit}  cell{atomic_unit}
       H  1.52760e-01  9.24045e-01  7.89417e-01
1
# CELL(abcABC):    1.00000     1.00000     0.58476    90.00000    90.00000    90.00000  Step:          55  Bead:       0 positions{atomic_unit}  cell{atomic_unit}
       H  1.55084e-01  9.42313e-01  7.94416e-01
1
# CELL(abcABC):    1.00000     1.00000     0.57464    90.00000    90.00000    90.00000  Step:          56  Bead:       0 positions{atomic_unit}  cell{atomic_unit}
       H  1.55100e-01  9.60889e-01  8.00789e-01
1
# CELL(abcABC):    1.00000     1.00000     0.56430    90.00000    90.00000    90.00000  Step:          57  Bead:       0 positions{atomic_unit}  cell{atomic_unit}
       H  1.55416e-01  9.79756e-01  8.06594e-01
1
# CELL(abcABC):    1.00000     1.00000     0.55447    90.00000    90.00000    90.00000  Step:          58  Bead:       0 positions{atomic_unit}  cell{atomic_unit}
       H  1.56508e-01  9.96417e-01  8.14322e-01
1
# CELL(abcABC):    1.00000     1.00000     0.54512    90.00000    90.00000    90.00000  Step:          59  Bead:       0 positions{atomic_unit}  cell{atomic_unit}
       H  1.55706e-01  1.01156e+00  8.22687e-01
1
# CELL(abcABC):    1.00000     1.00000     0.53780    90.00000    90.00000    90.00000  Step:          60  Bead:       0 positions{atomic_unit}  cell{atomic_unit}
       H  1.56545e-01  1.02841e+00  8.33495e-01
1
# CELL(abcABC):    1.00000     1.00000     0.53007    90.00000    90.00000    90.00000  Step:          61  Bead:       0 positions{atomic_unit}  cell{atomic_unit}
       H  1.58821e-01  1.04331e+00  8.41236e-01
1
# CELL(abcABC):    1.00000     1.00000     0.52244    90.00000    90.00000    90.00000  Step:          62  Bead:       0 positions{atomic_unit}  cell{atomic_unit}
       H  1.62032e-01  1.05805e+00  8.48924e-01
1
# CELL(abcABC):    1.00000     1.00000     0.51531    90.00000    90.00000    90.00000  Step:          63  Bead:       0 positions{atomic_unit}  cell{atomic_unit}
       H  1.65356e-01  1.07146e+00  8.56834e-01
1
# CELL(abcABC):    1.00000     1.00000     0.50760    90.00000    90.00000    90.00000  Step:          64  Bead:       0 positions{atomic_unit}  cell{atomic_unit}
       H  1.68604e-01  1.08658e+00  8.66103e-01
1
# CELL(abcABC):    1.00000     1.00000     0.50086    90.00000    90.00000    90.00000  Step:          65  Bead:       0 positions{atomic_unit}  cell{atomic_unit}
       H  1.71420e-01  1.10225e+00  8.75507e-01
1
# CELL(abcABC):    1.00000     1.00000     0.49461    90.00000    90.00000    90.00000  Step:          66  Bead:       0 positions{atomic_unit}  cell{atomic_unit}
       H  1.73840e-01  1.11713e+00  8.84673e-01
1
# CELL(abcABC):    1.00000     1.00000     0.48874    90.00000    90.00000    90.00000  Step:          67  Bead:       0 positions{atomic_unit}  cell{atomic_unit}
       H  1.77472e-01  1.13072e+00  8.94863e-01
1
# CELL(abcABC):    1.00000     1.00000     0.48296    90.00000    90.00000    90.00000  Step:          68  Bead:       0 positions{atomic_unit}  cell{atomic_unit}
       H  1.81493e-01  1.14345e+00  9.04573e-01
1
# CELL(abcABC):    1.00000     1.00000     0.47739    90.00000    90.00000    90.00000  Step:          69  Bead:       0 positions{atomic_unit}  cell{atomic_unit}
       H  1.87683e-01  1.15514e+00  9.14895e-01
1
# CELL(abcABC):    1.00000     1.00000     0.47292    90.00000    90.00000    90.00000  Step:          70  Bead:       0 positions{atomic_unit}  cell{atomic_unit}
       H  1.93271e-01  1.16756e+00  9.28559e-01
1
# CELL(abcABC):    1.00000     1.00000     0.46752    90.00000    90.00000    90.00000  Step:          71  Bead:       0 positions{atomic_unit}  cell{atomic_unit}
       H  1.98896e-01  1.18069e+00  9.39029e-01
1
# CELL(abcABC):    1.00000     1.00000     0.46309    90.00000    90.00000    90.00000  Step:          72  Bead:       0 positions{atomic_unit}  cell{atomic_unit}
       H  2.04840e-01  1.19054e+00  9.51206e-01
1
# CELL(abcABC):    1.00000     1.00000     0.45976    90.00000    90.00000    90.00000  Step:          73  Bead:       0 positions{atomic_unit}  cell{atomic_unit}
       H  2.08926e-01  1.20100e+00  9.64726e-01
1
# CELL(abcABC):    1.00000     1.00000     0.45608    90.00000    90.00000    90.00000  Step:          74  Bead:       0 positions{atomic_unit}  cell{atomic_unit}
       H  2.12776e-01  1.21244e+00  9.78081e-01
1
# CELL(abcABC):    1.00000     1.00000     0.45169    90.00000    90.00000    90.00000  Step:          75  Bead:       0 positions{atomic_unit}  cell{atomic_unit}
       H  2.18721e-01  1.22160e+00  9.93126e-01
1
# CELL(abcABC):    1.00000     1.00000     0.44654    90.00000    90.00000    90.00000  Step:          76  Bead:       0 positions{atomic_unit}  cell{atomic_unit}
       H  2.22760e-01  1.22977e+00  1.00503e+00
1
# CELL(abcABC):    1.00000     1.00000     0.44239    90.00000    90.00000    90.00000  Step:          77  Bead:       0 positions{atomic_unit}  cell{atomic_unit}
       H  2.25775e-01  1.23793e+00  1.02045e+00
1
# CELL(abcABC):    1.00000     1.00000     0.43838    90.00000    90.00000    90.00000  Step:          78  Bead:       0 positions{atomic_unit}  cell{atomic_unit}
       H  2.31715e-01  1.24852e+00  1.03367e+00
1
# CELL(abcABC):    1.00000     1.00000     0.43345    90.00000    90.00000    90.00000  Step:          79  Bead:       0 positions{atomic_unit}  cell{atomic_unit}
       H  2.36223e-01  1.25867e+00  1.04532e+00
1
# CELL(abcABC):    1.00000     1.00000     0.42865    90.00000    90.00000    90.00000  Step:          80  Bead:       0 positions{atomic_unit}  cell{atomic_unit}
       H  2.38887e-01  1.26895e+00  1.05541e+00
1
# CELL(abcABC):    1.00000     1.00000     0.42393    90.00000    90.00000    90.00000  Step:          81  Bead:       0 positions{atomic_unit}  cell{atomic_unit}
       H  2.41731e-01  1.27958e+00  1.06391e+00
1
# CELL(abcABC):    1.00000     1.00000     0.41862    90.00000    90.00000    90.00000  Step:          82  Bead:       0 positions{atomic_unit}  cell{atomic_unit}
       H  2.45706e-01  1.28752e+00  1.07185e+00
1
# CELL(abcABC):    1.00000     1.00000     0.41480    90.00000    90.00000    90.00000  Step:          83  Bead:       0 positions{atomic_unit}  cell{atomic_unit}
       H  2.49104e-01  1.29440e+00  1.08205e+00
1
# CELL(abcABC):    1.00000     1.00000     0.41131    90.00000    90.00000    90.00000  Step:          84  Bead:       0 positions{atomic_unit}  cell{atomic_unit}
       H  2.51107e-01  1.30099e+00  1.09218e+00
1
# CELL(abcABC):    1.00000     1.00000     0.40847    90.00000    90.00000    90.00000  Step:          85  Bead:       0 positions{atomic_unit}  cell{atomic_unit}
       H  2.52665e-01  1.30606e+00  1.10278e+00
1
# CELL(abcABC):    1.00000     1.00000     0.40628    90.00000    90.00000    90.00000  Step:          86  Bead:       0 positions{atomic_unit}  cell{atomic_unit}
       H  2.54703e-01  1.31330e+00  1.11414e+00
1
# CELL(abcABC):    1.00000     1.00000     0.40373    90.00000    90.00000    90.00000  Step:          87  Bead:       0 positions{atomic_unit}  cell{atomic_unit}
       H  2.53321e-01  1.31858e+00  1.12264e+00
1
# CELL(abcABC):    1.00000     1.00000     0.40142    90.00000    90.00000    90.00000  Step:          88  Bead:       0 positions{atomic_unit}  cell{atomic_unit}
       H  2.51344e-01  1.32417e+00  1.13005e+00
1
# CELL(abcABC):    1.00000     1.00000     0.39811    90.00000    90.00000    90.00000  Step:          89  Bead:       0 positions{atomic_unit}  cell{atomic_unit}
       H  2.50398e-01  1.32878e+00  1.13535e+00
1
# CELL(abcABC):    1.00000     1.00000     0.39466    90.00000    90.00000    90.00000  Step:          90  Bead:       0 positions{atomic_unit}  cell{atomic_unit}
       H  2.49297e-01  1.33411e+00  1.14085e+00
1
# CELL(abcABC):    1.00000     1.00000     0.39112    90.00000    90.00000    90.00000  Step:          91  Bead:       0 positions{atomic_unit}  cell{atomic_unit}
       H  2.48010e-01  1.34069e+00  1.14724e+00
1
# CELL(abcABC):    1.00000     1.00000     0.38771    90.00000    90.00000    90.00000  Step:          92  Bead:       0 positions{atomic_unit}  cell{atomic_unit}
       H  2.46251e-01  1.34417e+00  1.15696e+00
1
# CELL(abcABC):    1.00000     1.00000     0.38398    90.00000    90.00000    90.00000  Step:          93  Bead:       0 positions{atomic_unit}  cell{atomic_unit}
       H  2.44825e-01  1.34442e+00  1.16487e+00
1
# CELL(abcABC):    1.00000     1.00000     0.38032    90.00000    90.00000    90.00000  Step:          94  Bead:       0 positions{atomic_unit}  cell{atomic_unit}
       H  2.45014e-01  1.34596e+00  1.17278e+00
1
# CELL(abcABC):    1.00000     1.00000     0.37715    90.00000    90.00000    90.00000  Step:          95  Bead:       0 positions{atomic_unit}  cell{atomic_unit}
       H  2.45552e-01  1.34965e+00  1.18263e+00
1
# CELL(abcABC):    1.00000     1.00000     0.37406    90.00000    90.00000    90.00000  Step:          96  Bead:       0 positions{atomic_unit}  cell{atomic_unit}
       H  2.46358e-01  1.35188e+00  1.19204e+00
1
# CELL(abcABC):    1.00000     1.00000     0.37161    90.00000    90.00000    90.00000  Step:          97  Bead:       0 positions{atomic_unit}  cell{atomic_unit}
       H  2.46154e-01  1.35337e+00  1.20430e+00
1
# CELL(abcABC):    1.00000     1.00000     0.36939    90.00000    90.00000    90.00000  Step:          98  Bead:       0 positions{atomic_unit}  cell{atomic_unit}
       H  2.45697e-01  1.35612e+00  1.21577e+00
1
# CELL(abcABC):    1.00000     1.00000     0.36727    90.00000    90.00000    90.00000  Step:          99  Bead:       0 positions{atomic_unit}  cell{atomic_unit}
       H  2.44424e-01  1.35788e+00  1.22606e+00
1
# CELL(abcABC):    1.00000     1.00000     0.36602    90.00000    90.00000    90.00000  Step:         100  Bead:       0 positions{atomic_unit}  cell{atomic_unit}
       H  2.42059e-01  1.36049e+00  1.23646e+00
