1
# CELL(abcABC):    1.00000     1.00000     1.00000    90.00000    90.00000    90.00000  Step:           0  Bead:       0 positions{atomic_unit}  cell{atomic_unit}
       H  0.00000e+00  0.00000e+00  0.00000e+00
1
# CELL(abcABC):    1.00000     1.00000     0.99495    90.00000    90.00000    90.00000  Step:           1  Bead:       0 positions{atomic_unit}  cell{atomic_unit}
       H  1.14978e-02 -9.12581e-03  1.58308e-02
1
# CELL(abcABC):    1.00000     1.00000     0.98065    90.00000    90.00000    90.00000  Step:           2  Bead:       0 positions{atomic_unit}  cell{atomic_unit}
       H  2.23582e-02 -1.71465e-02  3.13863e-02
1
# CELL(abcABC):    1.00000     1.00000     0.95649    90.00000    90.00000    90.00000  Step:           3  Bead:       0 positions{atomic_unit}  cell{atomic_unit}
       H  3.41869e-02 -2.42226e-02  4.52327e-02
1
# CELL(abcABC):    1.00000     1.00000     0.92608    90.00000    90.00000    90.00000  Step:           4  Bead:       0 positions{atomic_unit}  cell{atomic_unit}
       H  4.69903e-02 -2.90173e-02  5.86431e-02
1
# CELL(abcABC):    1.00000     1.00000     0.88927    90.00000    90.00000    90.00000  Step:           5  Bead:       0 positions{atomic_unit}  cell{atomic_unit}
       H  5.87554e-02 -3.24276e-02  7.10189e-02
1
# CELL(abcABC):    1.00000     1.00000     0.84784    90.00000    90.00000    90.00000  Step:           6  Bead:       0 positions{atomic_unit}  cell{atomic_unit}
       H  7.13724e-02 -3.58139e-02  8.38501e-02
1
# CELL(abcABC):    1.00000     1.00000     0.80303    90.00000    90.00000    90.00000  Step:           7  Bead:       0 positions{atomic_unit}  cell{atomic_unit}
       H  8.36662e-02 -4.01221e-02  9.79104e-02
1
# CELL(abcABC):    1.00000     1.00000     0.75474    90.00000    90.00000    90.00000  Step:           8  Bead:       0 positions{atomic_unit}  cell{atomic_unit}
       H  9.55926e-02 -4.53692e-02  1.10303e-01
1
# CELL(abcABC):    1.00000     1.00000     0.70527    90.00000    90.00000    90.00000  Step:           9  Bead:       0 positions{atomic_unit}  cell{atomic_unit}
       H  1.09529e-01 -5.12859e-02  1.21465e-01
1
# CELL(abcABC):    1.00000     1.00000     0.65434    90.00000    90.00000    90.00000  Step:          10  Bead:       0 positions{atomic_unit}  cell{atomic_unit}
       H  1.23093e-01 -5.76530e-02  1.33605e-01
1
# CELL(abcABC):    1.00000     1.00000     0.60497    90.00000    90.00000    90.00000  Step:          11  Bead:       0 positions{atomic_unit}  cell{atomic_unit}
       H  1.36041e-01 -6.44861e-02  1.46107e-01
1
# CELL(abcABC):    1.00000     1.00000     0.55649    90.00000    90.00000    90.00000  Step:          12  Bead:       0 positions{atomic_unit}  cell{atomic_unit}
       H  1.48745e-01 -7.27249e-02  1.60385e-01
1
# CELL(abcABC):    1.00000     1.00000     0.50990    90.00000    90.00000    90.00000  Step:          13  Bead:       0 positions{atomic_unit}  cell{atomic_unit}
       H  1.60152e-01 -7.85667e-02  1.75134e-01
1
# CELL(abcABC):    1.00000     1.00000     0.46581    90.00000    90.00000    90.00000  Step:          14  Bead:       0 positions{atomic_unit}  cell{atomic_unit}
       H  1.69573e-01 -8.59345e-02  1.90943e-01
1
# CELL(abcABC):    1.00000     1.00000     0.42413    90.00000    90.00000    90.00000  Step:          15  Bead:       0 positions{atomic_unit}  cell{atomic_unit}
       H  1.78176e-01 -9.55220e-02  2.07880e-01
1
# CELL(abcABC):    1.00000     1.00000     0.38586    90.00000    90.00000    90.00000  Step:          16  Bead:       0 positions{atomic_unit}  cell{atomic_unit}
       H  1.86682e-01 -1.04104e-01  2.24910e-01
1
# CELL(abcABC):    1.00000     1.00000     0.35050    90.00000    90.00000    90.00000  Step:          17  Bead:       0 positions{atomic_unit}  cell{atomic_unit}
       H  1.97322e-01 -1.12540e-01  2.42230e-01
1
# CELL(abcABC):    1.00000     1.00000     0.31811    90.00000    90.00000    90.00000  Step:          18  Bead:       0 positions{atomic_unit}  cell{atomic_unit}
       H  2.08935e-01 -1.21138e-01  2.61170e-01
1
# CELL(abcABC):    1.00000     1.00000     0.28879    90.00000    90.00000    90.00000  Step:          19  Bead:       0 positions{atomic_unit}  cell{atomic_unit}
       H  2.18219e-01 -1.29153e-01  2.83532e-01
1
# CELL(abcABC):    1.00000     1.00000     0.26296    90.00000    90.00000    90.00000  Step:          20  Bead:       0 positions{atomic_unit}  cell{atomic_unit}
       H  2.27881e-01 -1.38086e-01  3.10882e-01
1
# CELL(abcABC):    1.00000     1.00000     0.23969    90.00000    90.00000    90.00000  Step:          21  Bead:       0 positions{atomic_unit}  cell{atomic_unit}
       H  2.36927e-01 -1.47213e-01  3.40313e-01
1
# CELL(abcABC):    1.00000     1.00000     0.21889    90.00000    90.00000    90.00000  Step:          22  Bead:       0 positions{atomic_unit}  cell{atomic_unit}
       H  2.45648e-01 -1.57251e-01  3.74139e-01
1
# CELL(abcABC):    1.00000     1.00000     0.20015    90.00000    90.00000    90.00000  Step:          23  Bead:       0 positions{atomic_unit}  cell{atomic_unit}
       H  2.56173e-01 -1.68412e-01  4.11841e-01
1
# CELL(abcABC):    1.00000     1.00000     0.18392    90.00000    90.00000    90.00000  Step:          24  Bead:       0 positions{atomic_unit}  cell{atomic_unit}
       H  2.67328e-01 -1.80652e-01  4.52167e-01
1
# CELL(abcABC):    1.00000     1.00000     0.16997    90.00000    90.00000    90.00000  Step:          25  Bead:       0 positions{atomic_unit}  cell{atomic_unit}
       H  2.78068e-01 -1.91521e-01  4.99102e-01
1
# CELL(abcABC):    1.00000     1.00000     0.15860    90.00000    90.00000    90.00000  Step:          26  Bead:       0 positions{atomic_unit}  cell{atomic_unit}
       H  2.89275e-01 -2.03200e-01  5.51414e-01
1
# CELL(abcABC):    1.00000     1.00000     0.14898    90.00000    90.00000    90.00000  Step:          27  Bead:       0 positions{atomic_unit}  cell{atomic_unit}
       H  3.00626e-01 -2.12610e-01  6.08150e-01
1
# CELL(abcABC):    1.00000     1.00000     0.14093    90.00000    90.00000    90.00000  Step:          28  Bead:       0 positions{atomic_unit}  cell{atomic_unit}
       H  3.13130e-01 -2.22371e-01  6.70358e-01
1
# CELL(abcABC):    1.00000     1.00000     0.13459    90.00000    90.00000    90.00000  Step:          29  Bead:       0 positions{atomic_unit}  cell{atomic_unit}
       H  3.24583e-01 -2.31083e-01  7.39972e-01
1
# CELL(abcABC):    1.00000     1.00000     0.12956    90.00000    90.00000    90.00000  Step:          30  Bead:       0 positions{atomic_unit}  cell{atomic_unit}
       H  3.34464e-01 -2.39501e-01  8.15615e-01
1
# CELL(abcABC):    1.00000     1.00000     0.12604    90.00000    90.00000    90.00000  Step:          31  Bead:       0 positions{atomic_unit}  cell{atomic_unit}
       H  3.45394e-01 -2.45882e-01  8.99763e-01
1
# CELL(abcABC):    1.00000     1.00000     0.12365    90.00000    90.00000    90.00000  Step:          32  Bead:       0 positions{atomic_unit}  cell{atomic_unit}
       H  3.54595e-01 -2.52142e-01  9.88820e-01
1
# CELL(abcABC):    1.00000     1.00000     0.12266    90.00000    90.00000    90.00000  Step:          33  Bead:       0 positions{atomic_unit}  cell{atomic_unit}
       H  3.66000e-01 -2.56148e-01  1.08821e+00
1
# CELL(abcABC):    1.00000     1.00000     0.12287    90.00000    90.00000    90.00000  Step:          34  Bead:       0 positions{atomic_unit}  cell{atomic_unit}
       H  3.77093e-01 -2.59893e-01  1.19539e+00
1
# CELL(abcABC):    1.00000     1.00000     0.12413    90.00000    90.00000    90.00000  Step:          35  Bead:       0 positions{atomic_unit}  cell{atomic_unit}
       H  3.90583e-01 -2.62275e-01  1.31050e+00
1
# CELL(abcABC):    1.00000     1.00000     0.12649    90.00000    90.00000    90.00000  Step:          36  Bead:       0 positions{atomic_unit}  cell{atomic_unit}
       H  4.04012e-01 -2.62060e-01  1.43564e+00
1
# CELL(abcABC):    1.00000     1.00000     0.13018    90.00000    90.00000    90.00000  Step:          37  Bead:       0 positions{atomic_unit}  cell{atomic_unit}
       H  4.16930e-01 -2.60299e-01  1.57395e+00
1
# CELL(abcABC):    1.00000     1.00000     0.13499    90.00000    90.00000    90.00000  Step:          38  Bead:       0 positions{atomic_unit}  cell{atomic_unit}
       H  4.31000e-01 -2.57581e-01  1.72203e+00
1
# CELL(abcABC):    1.00000     1.00000     0.14060    90.00000    90.00000    90.00000  Step:          39  Bead:       0 positions{atomic_unit}  cell{atomic_unit}
       H  4.45509e-01 -2.54030e-01  1.88096e+00
1
# CELL(abcABC):    1.00000     1.00000     0.14694    90.00000    90.00000    90.00000  Step:          40  Bead:       0 positions{atomic_unit}  cell{atomic_unit}
       H  4.60634e-01 -2.53718e-01  2.04844e+00
1
# CELL(abcABC):    1.00000     1.00000     0.15463    90.00000    90.00000    90.00000  Step:          41  Bead:       0 positions{atomic_unit}  cell{atomic_unit}
       H  4.76733e-01 -2.54666e-01  2.23476e+00
1
# CELL(abcABC):    1.00000     1.00000     0.16332    90.00000    90.00000    90.00000  Step:          42  Bead:       0 positions{atomic_unit}  cell{atomic_unit}
       H  4.96156e-01 -2.54634e-01  2.43692e+00
1
# CELL(abcABC):    1.00000     1.00000     0.17303    90.00000    90.00000    90.00000  Step:          43  Bead:       0 positions{atomic_unit}  cell{atomic_unit}
       H  5.12124e-01 -2.53018e-01  2.65545e+00
1
# CELL(abcABC):    1.00000     1.00000     0.18356    90.00000    90.00000    90.00000  Step:          44  Bead:       0 positions{atomic_unit}  cell{atomic_unit}
       H  5.28680e-01 -2.51716e-01  2.88768e+00
1
# CELL(abcABC):    1.00000     1.00000     0.19544    90.00000    90.00000    90.00000  Step:          45  Bead:       0 positions{atomic_unit}  cell{atomic_unit}
       H  5.45631e-01 -2.49645e-01  3.13884e+00
1
# CELL(abcABC):    1.00000     1.00000     0.20872    90.00000    90.00000    90.00000  Step:          46  Bead:       0 positions{atomic_unit}  cell{atomic_unit}
       H  5.62954e-01 -2.46318e-01  3.41182e+00
1
# CELL(abcABC):    1.00000     1.00000     0.22287    90.00000    90.00000    90.00000  Step:          47  Bead:       0 positions{atomic_unit}  cell{atomic_unit}
       H  5.80665e-01 -2.43115e-01  3.69614e+00
1
# CELL(abcABC):    1.00000     1.00000     0.23817    90.00000    90.00000    90.00000  Step:          48  Bead:       0 positions{atomic_unit}  cell{atomic_unit}
       H  6.00033e-01 -2.39887e-01  3.99761e+00
1
# CELL(abcABC):    1.00000     1.00000     0.25443    90.00000    90.00000    90.00000  Step:          49  Bead:       0 positions{atomic_unit}  cell{atomic_unit}
       H  6.19978e-01 -2.35799e-01  4.31544e+00
1
# CELL(abcABC):    1.00000     1.00000     0.27056    90.00000    90.00000    90.00000  Step:          50  Bead:       0 positions{atomic_unit}  cell{atomic_unit}
       H  6.38511e-01 -2.31765e-01  4.63168e+00
1
# CELL(abcABC):    1.00000     1.00000     0.28649    90.00000    90.00000    90.00000  Step:          51  Bead:       0 positions{atomic_unit}  cell{atomic_unit}
       H  6.55605e-01 -2.28924e-01  4.94588e+00
1
# CELL(abcABC):    1.00000     1.00000     0.30245    90.00000    90.00000    90.00000  Step:          52  Bead:       0 positions{atomic_unit}  cell{atomic_unit}
       H  6.71465e-01 -2.27214e-01  5.25890e+00
1
# CELL(abcABC):    1.00000     1.00000     0.31898    90.00000    90.00000    90.00000  Step:          53  Bead:       0 positions{atomic_unit}  cell{atomic_unit}
       H  6.88001e-01 -2.24892e-01  5.58320e+00
1
# CELL(abcABC):    1.00000     1.00000     0.33478    90.00000    90.00000    90.00000  Step:          54  Bead:       0 positions{atomic_unit}  cell{atomic_unit}
       H  7.02902e-01 -2.23403e-01  5.89456e+00
1
# CELL(abcABC):    1.00000     1.00000     0.35095    90.00000    90.00000    90.00000  Step:          55  Bead:       0 positions{atomic_unit}  cell{atomic_unit}
       H  7.17253e-01 -2.21105e-01  6.20926e+00
1
# CELL(abcABC):    1.00000     1.00000     0.36627    90.00000    90.00000    90.00000  Step:          56  Bead:       0 positions{atomic_unit}  cell{atomic_unit}
       H  7.30448e-01 -2.14881e-01  6.51073e+00
1
# CELL(abcABC):    1.00000     1.00000     0.38125    90.00000    90.00000    90.00000  Step:          57  Bead:       0 positions{atomic_unit}  cell{atomic_unit}
       H  7.42407e-01 -2.08983e-01  6.80791e+00
1
# CELL(abcABC):    1.00000     1.00000     0.39404    90.00000    90.00000    90.00000  Step:          58  Bead:       0 positions{atomic_unit}  cell{atomic_unit}
       H  7.53178e-01 -2.03965e-01  7.06558e+00
1
# CELL(abcABC):    1.00000     1.00000     0.40653    90.00000    90.00000    90.00000  Step:          59  Bead:       0 positions{atomic_unit}  cell{atomic_unit}
       H  7.61976e-01 -1.99235e-01  7.31616e+00
1
# CELL(abcABC):    1.00000     1.00000     0.41841    90.00000    90.00000    90.00000  Step:          60  Bead:       0 positions{atomic_unit}  cell{atomic_unit}
       H  7.68723e-01 -1.93107e-01  7.55421e+00
1
# CELL(abcABC):    1.00000     1.00000     0.42965    90.00000    90.00000    90.00000  Step:          61  Bead:       0 positions{atomic_unit}  cell{atomic_unit}
       H  7.74060e-01 -1.84702e-01  7.77838e+00
1
# CELL(abcABC):    1.00000     1.00000     0.44013    90.00000    90.00000    90.00000  Step:          62  Bead:       0 positions{atomic_unit}  cell{atomic_unit}
       H  7.79963e-01 -1.77294e-01  7.99110e+00
1
# CELL(abcABC):    1.00000     1.00000     0.44760    90.00000    90.00000    90.00000  Step:          63  Bead:       0 positions{atomic_unit}  cell{atomic_unit}
       H  7.86732e-01 -1.67408e-01  8.15109e+00
1
# CELL(abcABC):    1.00000     1.00000     0.45282    90.00000    90.00000    90.00000  Step:          64  Bead:       0 positions{atomic_unit}  cell{atomic_unit}
       H  7.93248e-01 -1.58338e-01  8.27099e+00
1
# CELL(abcABC):    1.00000     1.00000     0.45728    90.00000    90.00000    90.00000  Step:          65  Bead:       0 positions{atomic_unit}  cell{atomic_unit}
       H  7.99588e-01 -1.50781e-01  8.37685e+00
1
# CELL(abcABC):    1.00000     1.00000     0.46112    90.00000    90.00000    90.00000  Step:          66  Bead:       0 positions{atomic_unit}  cell{atomic_unit}
       H  8.07261e-01 -1.41433e-01  8.47096e+00
1
# CELL(abcABC):    1.00000     1.00000     0.46292    90.00000    90.00000    90.00000  Step:          67  Bead:       0 positions{atomic_unit}  cell{atomic_unit}
       H  8.16201e-01 -1.34570e-01  8.52755e+00
1
# CELL(abcABC):    1.00000     1.00000     0.46226    90.00000    90.00000    90.00000  Step:          68  Bead:       0 positions{atomic_unit}  cell{atomic_unit}
       H  8.23008e-01 -1.28564e-01  8.53967e+00
1
# CELL(abcABC):    1.00000     1.00000     0.45961    90.00000    90.00000    90.00000  Step:          69  Bead:       0 positions{atomic_unit}  cell{atomic_unit}
       H  8.31441e-01 -1.21788e-01  8.51389e+00
1
# CELL(abcABC):    1.00000     1.00000     0.45514    90.00000    90.00000    90.00000  Step:          70  Bead:       0 positions{atomic_unit}  cell{atomic_unit}
       H  8.41384e-01 -1.16636e-01  8.45446e+00
1
# CELL(abcABC):    1.00000     1.00000     0.44934    90.00000    90.00000    90.00000  Step:          71  Bead:       0 positions{atomic_unit}  cell{atomic_unit}
       H  8.50943e-01 -1.10030e-01  8.36973e+00
1
# CELL(abcABC):    1.00000     1.00000     0.44256    90.00000    90.00000    90.00000  Step:          72  Bead:       0 positions{atomic_unit}  cell{atomic_unit}
       H  8.57881e-01 -1.01715e-01  8.26760e+00
1
# CELL(abcABC):    1.00000     1.00000     0.43536    90.00000    90.00000    90.00000  Step:          73  Bead:       0 positions{atomic_unit}  cell{atomic_unit}
       H  8.64091e-01 -9.34573e-02  8.15868e+00
1
# CELL(abcABC):    1.00000     1.00000     0.42644    90.00000    90.00000    90.00000  Step:          74  Bead:       0 positions{atomic_unit}  cell{atomic_unit}
       H  8.70811e-01 -8.56182e-02  8.01713e+00
1
# CELL(abcABC):    1.00000     1.00000     0.41787    90.00000    90.00000    90.00000  Step:          75  Bead:       0 positions{atomic_unit}  cell{atomic_unit}
       H  8.77356e-01 -7.71277e-02  7.88037e+00
1
# CELL(abcABC):    1.00000     1.00000     0.40860    90.00000    90.00000    90.00000  Step:          76  Bead:       0 positions{atomic_unit}  cell{atomic_unit}
       H  8.86347e-01 -6.78358e-02  7.73049e+00
1
# CELL(abcABC):    1.00000     1.00000     0.39797    90.00000    90.00000    90.00000  Step:          77  Bead:       0 positions{atomic_unit}  cell{atomic_unit}
       H  8.95094e-01 -5.85880e-02  7.55456e+00
1
# CELL(abcABC):    1.00000     1.00000     0.38629    90.00000    90.00000    90.00000  Step:          78  Bead:       0 positions{atomic_unit}  cell{atomic_unit}
       H  9.04724e-01 -5.19927e-02  7.35900e+00
1
# CELL(abcABC):    1.00000     1.00000     0.37404    90.00000    90.00000    90.00000  Step:          79  Bead:       0 positions{atomic_unit}  cell{atomic_unit}
       H  9.14582e-01 -4.43561e-02  7.15466e+00
1
# CELL(abcABC):    1.00000     1.00000     0.36121    90.00000    90.00000    90.00000  Step:          80  Bead:       0 positions{atomic_unit}  cell{atomic_unit}
       H  9.24004e-01 -3.62118e-02  6.93743e+00
1
# CELL(abcABC):    1.00000     1.00000     0.34712    90.00000    90.00000    90.00000  Step:          81  Bead:       0 positions{atomic_unit}  cell{atomic_unit}
       H  9.33192e-01 -2.70916e-02  6.69592e+00
1
# CELL(abcABC):    1.00000     1.00000     0.33297    90.00000    90.00000    90.00000  Step:          82  Bead:       0 positions{atomic_unit}  cell{atomic_unit}
       H  9.41537e-01 -2.16243e-02  6.45046e+00
1
# CELL(abcABC):    1.00000     1.00000     0.31892    90.00000    90.00000    90.00000  Step:          83  Bead:       0 positions{atomic_unit}  cell{atomic_unit}
       H  9.49138e-01 -1.79335e-02  6.20453e+00
1
# CELL(abcABC):    1.00000     1.00000     0.30468    90.00000    90.00000    90.00000  Step:          84  Bead:       0 positions{atomic_unit}  cell{atomic_unit}
       H  9.55525e-01 -1.28299e-02  5.95397e+00
1
# CELL(abcABC):    1.00000     1.00000     0.29053    90.00000    90.00000    90.00000  Step:          85  Bead:       0 positions{atomic_unit}  cell{atomic_unit}
       H  9.60820e-01 -8.95175e-03  5.70404e+00
1
# CELL(abcABC):    1.00000     1.00000     0.27678    90.00000    90.00000    90.00000  Step:          86  Bead:       0 positions{atomic_unit}  cell{atomic_unit}
       H  9.66578e-01 -4.81660e-03  5.46102e+00
1
# CELL(abcABC):    1.00000     1.00000     0.26326    90.00000    90.00000    90.00000  Step:          87  Bead:       0 positions{atomic_unit}  cell{atomic_unit}
       H  9.70197e-01 -7.40103e-04  5.22273e+00
1
# CELL(abcABC):    1.00000     1.00000     0.24996    90.00000    90.00000    90.00000  Step:          88  Bead:       0 positions{atomic_unit}  cell{atomic_unit}
       H  9.73348e-01  2.04486e-03  4.98821e+00
1
# CELL(abcABC):    1.00000     1.00000     0.23643    90.00000    90.00000    90.00000  Step:          89  Bead:       0 positions{atomic_unit}  cell{atomic_unit}
       H  9.77069e-01  4.00763e-03  4.74765e+00
1
# CELL(abcABC):    1.00000     1.00000     0.22310    90.00000    90.00000    90.00000  Step:          90  Bead:       0 positions{atomic_unit}  cell{atomic_unit}
       H  9.80778e-01  4.08794e-03  4.51181e+00
1
# CELL(abcABC):    1.00000     1.00000     0.21060    90.00000    90.00000    90.00000  Step:          91  Bead:       0 positions{atomic_unit}  cell{atomic_unit}
       H  9.85523e-01  3.25770e-03  4.29354e+00
1
# CELL(abcABC):    1.00000     1.00000     0.19901    90.00000    90.00000    90.00000  Step:          92  Bead:       0 positions{atomic_unit}  cell{atomic_unit}
       H  9.91436e-01  3.99081e-03  4.09152e+00
1
# CELL(abcABC):    1.00000     1.00000     0.18795    90.00000    90.00000    90.00000  Step:          93  Bead:       0 positions{atomic_unit}  cell{atomic_unit}
       H  9.97421e-01  2.71260e-03  3.90114e+00
1
# CELL(abcABC):    1.00000     1.00000     0.17781    90.00000    90.00000    90.00000  Step:          94  Bead:       0 positions{atomic_unit}  cell{atomic_unit}
       H  9.99320e-01  2.43664e-03  3.72873e+00
1
# CELL(abcABC):    1.00000     1.00000     0.16819    90.00000    90.00000    90.00000  Step:          95  Bead:       0 positions{atomic_unit}  cell{atomic_unit}
       H  1.00220e+00  2.40195e-03  3.56541e+00
1
# CELL(abcABC):    1.00000     1.00000     0.15925    90.00000    90.00000    90.00000  Step:          96  Bead:       0 positions{atomic_unit}  cell{atomic_unit}
       H  1.00478e+00  2.85024e-04  3.41563e+00
1
# CELL(abcABC):    1.00000     1.00000     0.15097    90.00000    90.00000    90.00000  Step:          97  Bead:       0 positions{atomic_unit}  cell{atomic_unit}
       H  1.00662e+00 -2.04821e-03  3.27958e+00
1
# CELL(abcABC):    1.00000     1.00000     0.14309    90.00000    90.00000    90.00000  Step:          98  Bead:       0 positions{atomic_unit}  cell{atomic_unit}
       H  1.01056e+00 -2.43820e-03  3.15165e+00
1
# CELL(abcABC):    1.00000     1.00000     0.13585    90.00000    90.00000    90.00000  Step:          99  Bead:       0 positions{atomic_unit}  cell{atomic_unit}
       H  1.01625e+00 -2.59749e-03  3.03736e+00
1
# CELL(abcABC):    1.00000     1.00000     0.12889    90.00000    90.00000    90.00000  Step:         100  Bead:       0 positions{atomic_unit}  cell{atomic_unit}
       H  1.02089e+00 -2.69894e-03  2.92909e+00
