1
# CELL(abcABC):    1.00000     1.00000     1.00000    90.00000    90.00000    90.00000  Step:           0  Bead:       0 positions{atomic_unit}  cell{atomic_unit}
       H  0.00000e+00  0.00000e+00  0.00000e+00
1
# CELL(abcABC):    1.00000     1.00000     0.99980    90.00000    90.00000    90.00000  Step:           1  Bead:       0 positions{atomic_unit}  cell{atomic_unit}
       H  2.92673e-03 -1.80175e-02  1.18161e-03
1
# CELL(abcABC):    1.00000     1.00000     0.99867    90.00000    90.00000    90.00000  Step:           2  Bead:       0 positions{atomic_unit}  cell{atomic_unit}
       H  1.79100e-03 -3.35187e-02  1.75091e-03
1
# CELL(abcABC):    1.00000     1.00000     0.99764    90.00000    90.00000    90.00000  Step:           3  Bead:       0 positions{atomic_unit}  cell{atomic_unit}
       H  8.14520e-04 -5.01100e-02  3.92774e-04
1
# CELL(abcABC):    1.00000     1.00000     0.99849    90.00000    90.00000    90.00000  Step:           4  Bead:       0 positions{atomic_unit}  cell{atomic_unit}
       H -1.61743e-03 -6.72258e-02 -1.66252e-03
1
# CELL(abcABC):    1.00000     1.00000     1.00130    90.00000    90.00000    90.00000  Step:           5  Bead:       0 positions{atomic_unit}  cell{atomic_unit}
       H -3.71084e-03 -8.67254e-02 -4.29173e-03
1
# CELL(abcABC):    1.00000     1.00000     1.00410    90.00000    90.00000    90.00000  Step:           6  Bead:       0 positions{atomic_unit}  cell{atomic_unit}
       H -6.67791e-03 -1.05201e-01 -6.58849e-03
1
# CELL(abcABC):    1.00000     1.00000     1.00610    90.00000    90.00000    90.00000  Step:           7  Bead:       0 positions{atomic_unit}  cell{atomic_unit}
       H -1.00915e-02 -1.24660e-01 -1.07469e-02
1
# CELL(abcABC):    1.00000     1.00000     1.01247    90.00000    90.00000    90.00000  Step:           8  Bead:       0 positions{atomic_unit}  cell{atomic_unit}
       H -1.25166e-02 -1.44764e-01 -1.29477e-02
1
# CELL(abcABC):    1.00000     1.00000     1.02114    90.00000    90.00000    90.00000  Step:           9  Bead:       0 positions{atomic_unit}  cell{atomic_unit}
       H -1.51961e-02 -1.65886e-01 -1.43742e-02
1
# CELL(abcABC):    1.00000     1.00000     1.02805    90.00000    90.00000    90.00000  Step:          10  Bead:       0 positions{atomic_unit}  cell{atomic_unit}
       H -1.73265e-02 -1.86508e-01 -1.68135e-02
1
# CELL(abcABC):    1.00000     1.00000     1.03417    90.00000    90.00000    90.00000  Step:          11  Bead:       0 positions{atomic_unit}  cell{atomic_unit}
       H -2.03403e-02 -2.06592e-01 -1.73652e-02
1
# CELL(abcABC):    1.00000     1.00000     1.03683    90.00000    90.00000    90.00000  Step:          12  Bead:       0 positions{atomic_unit}  cell{atomic_unit}
       H -2.23311e-02 -2.24145e-01 -1.71527e-02
1
# CELL(abcABC):    1.00000     1.00000     1.03818    90.00000    90.00000    90.00000  Step:          13  Bead:       0 positions{atomic_unit}  cell{atomic_unit}
       H -2.31334e-02 -2.40347e-01 -1.64551e-02
1
# CELL(abcABC):    1.00000     1.00000     1.03619    90.00000    90.00000    90.00000  Step:          14  Bead:       0 positions{atomic_unit}  cell{atomic_unit}
       H -2.44736e-02 -2.55935e-01 -1.57783e-02
1
# CELL(abcABC):    1.00000     1.00000     1.03488    90.00000    90.00000    90.00000  Step:          15  Bead:       0 positions{atomic_unit}  cell{atomic_unit}
       H -2.69526e-02 -2.69083e-01 -1.42016e-02
1
# CELL(abcABC):    1.00000     1.00000     1.03184    90.00000    90.00000    90.00000  Step:          16  Bead:       0 positions{atomic_unit}  cell{atomic_unit}
       H -3.18084e-02 -2.81868e-01 -1.11112e-02
1
# CELL(abcABC):    1.00000     1.00000     1.02829    90.00000    90.00000    90.00000  Step:          17  Bead:       0 positions{atomic_unit}  cell{atomic_unit}
       H -3.69144e-02 -2.92838e-01 -6.27851e-03
1
# CELL(abcABC):    1.00000     1.00000     1.02597    90.00000    90.00000    90.00000  Step:          18  Bead:       0 positions{atomic_unit}  cell{atomic_unit}
       H -4.38658e-02 -3.03219e-01 -7.39690e-04
1
# CELL(abcABC):    1.00000     1.00000     1.02139    90.00000    90.00000    90.00000  Step:          19  Bead:       0 positions{atomic_unit}  cell{atomic_unit}
       H -5.14995e-02 -3.14747e-01  3.78702e-03
1
# CELL(abcABC):    1.00000     1.00000     1.01702    90.00000    90.00000    90.00000  Step:          20  Bead:       0 positions{atomic_unit}  cell{atomic_unit}
       H -6.00418e-02 -3.26685e-01  7.00522e-03
1
# CELL(abcABC):    1.00000     1.00000     1.01283    90.00000    90.00000    90.00000  Step:          21  Bead:       0 positions{atomic_unit}  cell{atomic_unit}
       H -6.82026e-02 -3.38228e-01  7.91246e-03
1
# CELL(abcABC):    1.00000     1.00000     1.00818    90.00000    90.00000    90.00000  Step:          22  Bead:       0 positions{atomic_unit}  cell{atomic_unit}
       H -7.49997e-02 -3.51271e-01  1.00280e-02
1
# CELL(abcABC):    1.00000     1.00000     1.00320    90.00000    90.00000    90.00000  Step:          23  Bead:       0 positions{atomic_unit}  cell{atomic_unit}
       H -8.24194e-02 -3.63675e-01  1.19813e-02
1
# CELL(abcABC):    1.00000     1.00000     0.99942    90.00000    90.00000    90.00000  Step:          24  Bead:       0 positions{atomic_unit}  cell{atomic_unit}
       H -9.00302e-02 -3.76066e-01  1.59579e-02
1
# CELL(abcABC):    1.00000     1.00000     0.99615    90.00000    90.00000    90.00000  Step:          25  Bead:       0 positions{atomic_unit}  cell{atomic_unit}
       H -9.80550e-02 -3.88648e-01  2.38048e-02
1
# CELL(abcABC):    1.00000     1.00000     0.99346    90.00000    90.00000    90.00000  Step:          26  Bead:       0 positions{atomic_unit}  cell{atomic_unit}
       H -1.05489e-01 -4.01727e-01  3.18743e-02
1
# CELL(abcABC):    1.00000     1.00000     0.99080    90.00000    90.00000    90.00000  Step:          27  Bead:       0 positions{atomic_unit}  cell{atomic_unit}
       H -1.09791e-01 -4.14157e-01  3.90675e-02
1
# CELL(abcABC):    1.00000     1.00000     0.98730    90.00000    90.00000    90.00000  Step:          28  Bead:       0 positions{atomic_unit}  cell{atomic_unit}
       H -1.16098e-01 -4.25986e-01  4.43906e-02
1
# CELL(abcABC):    1.00000     1.00000     0.98394    90.00000    90.00000    90.00000  Step:          29  Bead:       0 positions{atomic_unit}  cell{atomic_unit}
       H -1.22812e-01 -4.38089e-01  4.91611e-02
1
# CELL(abcABC):    1.00000     1.00000     0.97995    90.00000    90.00000    90.00000  Step:          30  Bead:       0 positions{atomic_unit}  cell{atomic_unit}
       H -1.29686e-01 -4.50973e-01  5.44385e-02
1
# CELL(abcABC):    1.00000     1.00000     0.97783    90.00000    90.00000    90.00000  Step:          31  Bead:       0 positions{atomic_unit}  cell{atomic_unit}
       H -1.33675e-01 -4.63238e-01  6.07765e-02
1
# CELL(abcABC):    1.00000     1.00000     0.97559    90.00000    90.00000    90.00000  Step:          32  Bead:       0 positions{atomic_unit}  cell{atomic_unit}
       H -1.38118e-01 -4.75522e-01  6.63488e-02
1
# CELL(abcABC):    1.00000     1.00000     0.97228    90.00000    90.00000    90.00000  Step:          33  Bead:       0 positions{atomic_unit}  cell{atomic_unit}
       H -1.43041e-01 -4.85917e-01  7.22496e-02
1
# CELL(abcABC):    1.00000     1.00000     0.96832    90.00000    90.00000    90.00000  Step:          34  Bead:       0 positions{atomic_unit}  cell{atomic_unit}
       H -1.48048e-01 -4.95288e-01  7.87173e-02
1
# CELL(abcABC):    1.00000     1.00000     0.96321    90.00000    90.00000    90.00000  Step:          35  Bead:       0 positions{atomic_unit}  cell{atomic_unit}
       H -1.54634e-01 -5.05944e-01  8.59862e-02
1
# CELL(abcABC):    1.00000     1.00000     0.95982    90.00000    90.00000    90.00000  Step:          36  Bead:       0 positions{atomic_unit}  cell{atomic_unit}
       H -1.60434e-01 -5.14841e-01  9.39115e-02
1
# CELL(abcABC):    1.00000     1.00000     0.95645    90.00000    90.00000    90.00000  Step:          37  Bead:       0 positions{atomic_unit}  cell{atomic_unit}
       H -1.68296e-01 -5.21854e-01  9.95499e-02
1
# CELL(abcABC):    1.00000     1.00000     0.95131    90.00000    90.00000    90.00000  Step:          38  Bead:       0 positions{atomic_unit}  cell{atomic_unit}
       H -1.74495e-01 -5.29317e-01  1.03255e-01
1
# CELL(abcABC):    1.00000     1.00000     0.94639    90.00000    90.00000    90.00000  Step:          39  Bead:       0 positions{atomic_unit}  cell{atomic_unit}
       H -1.82347e-01 -5.34467e-01  1.08028e-01
1
# CELL(abcABC):    1.00000     1.00000     0.94152    90.00000    90.00000    90.00000  Step:          40  Bead:       0 positions{atomic_unit}  cell{atomic_unit}
       H -1.88757e-01 -5.43304e-01  1.11396e-01
1
# CELL(abcABC):    1.00000     1.00000     0.93752    90.00000    90.00000    90.00000  Step:          41  Bead:       0 positions{atomic_unit}  cell{atomic_unit}
       H -1.97843e-01 -5.53180e-01  1.17170e-01
1
# CELL(abcABC):    1.00000     1.00000     0.93395    90.00000    90.00000    90.00000  Step:          42  Bead:       0 positions{atomic_unit}  cell{atomic_unit}
       H -2.06657e-01 -5.63499e-01  1.22810e-01
1
# CELL(abcABC):    1.00000     1.00000     0.93056    90.00000    90.00000    90.00000  Step:          43  Bead:       0 positions{atomic_unit}  cell{atomic_unit}
       H -2.16444e-01 -5.71997e-01  1.29907e-01
1
# CELL(abcABC):    1.00000     1.00000     0.92785    90.00000    90.00000    90.00000  Step:          44  Bead:       0 positions{atomic_unit}  cell{atomic_unit}
       H -2.29255e-01 -5.80947e-01  1.38503e-01
1
# CELL(abcABC):    1.00000     1.00000     0.92492    90.00000    90.00000    90.00000  Step:          45  Bead:       0 positions{atomic_unit}  cell{atomic_unit}
       H -2.41511e-01 -5.89223e-01  1.47753e-01
1
# CELL(abcABC):    1.00000     1.00000     0.92119    90.00000    90.00000    90.00000  Step:          46  Bead:       0 positions{atomic_unit}  cell{atomic_unit}
       H -2.50002e-01 -5.98193e-01  1.54415e-01
1
# CELL(abcABC):    1.00000     1.00000     0.91644    90.00000    90.00000    90.00000  Step:          47  Bead:       0 positions{atomic_unit}  cell{atomic_unit}
       H -2.60139e-01 -6.07808e-01  1.59629e-01
1
# CELL(abcABC):    1.00000     1.00000     0.91317    90.00000    90.00000    90.00000  Step:          48  Bead:       0 positions{atomic_unit}  cell{atomic_unit}
       H -2.71032e-01 -6.16779e-01  1.63827e-01
1
# CELL(abcABC):    1.00000     1.00000     0.90833    90.00000    90.00000    90.00000  Step:          49  Bead:       0 positions{atomic_unit}  cell{atomic_unit}
       H -2.82557e-01 -6.26008e-01  1.69472e-01
1
# CELL(abcABC):    1.00000     1.00000     0.90442    90.00000    90.00000    90.00000  Step:          50  Bead:       0 positions{atomic_unit}  cell{atomic_unit}
       H -2.94442e-01 -6.33795e-01  1.74756e-01
1
# CELL(abcABC):    1.00000     1.00000     0.90232    90.00000    90.00000    90.00000  Step:          51  Bead:       0 positions{atomic_unit}  cell{atomic_unit}
       H -3.08517e-01 -6.43851e-01  1.81866e-01
1
# CELL(abcABC):    1.00000     1.00000     0.90062    90.00000    90.00000    90.00000  Step:          52  Bead:       0 positions{atomic_unit}  cell{atomic_unit}
       H -3.24703e-01 -6.55577e-01  1.87954e-01
1
# CELL(abcABC):    1.00000     1.00000     0.89836    90.00000    90.00000    90.00000  Step:          53  Bead:       0 positions{atomic_unit}  cell{atomic_unit}
       H -3.39539e-01 -6.67628e-01  1.92358e-01
1
# CELL(abcABC):    1.00000     1.00000     0.89758    90.00000    90.00000    90.00000  Step:          54  Bead:       0 positions{atomic_unit}  cell{atomic_unit}
       H -3.52537e-01 -6.79206e-01  1.97816e-01
1
# CELL(abcABC):    1.00000     1.00000     0.89508    90.00000    90.00000    90.00000  Step:          55  Bead:       0 positions{atomic_unit}  cell{atomic_unit}
       H -3.64643e-01 -6.90877e-01  2.01322e-01
1
# CELL(abcABC):    1.00000     1.00000     0.89059    90.00000    90.00000    90.00000  Step:          56  Bead:       0 positions{atomic_unit}  cell{atomic_unit}
       H -3.78519e-01 -7.00486e-01  2.05071e-01
1
# CELL(abcABC):    1.00000     1.00000     0.88542    90.00000    90.00000    90.00000  Step:          57  Bead:       0 positions{atomic_unit}  cell{atomic_unit}
       H -3.89887e-01 -7.08228e-01  2.07893e-01
1
# CELL(abcABC):    1.00000     1.00000     0.87998    90.00000    90.00000    90.00000  Step:          58  Bead:       0 positions{atomic_unit}  cell{atomic_unit}
       H -4.00811e-01 -7.18765e-01  2.13269e-01
1
# CELL(abcABC):    1.00000     1.00000     0.87401    90.00000    90.00000    90.00000  Step:          59  Bead:       0 positions{atomic_unit}  cell{atomic_unit}
       H -4.10469e-01 -7.29498e-01  2.20276e-01
1
# CELL(abcABC):    1.00000     1.00000     0.86839    90.00000    90.00000    90.00000  Step:          60  Bead:       0 positions{atomic_unit}  cell{atomic_unit}
       H -4.20183e-01 -7.39056e-01  2.25186e-01
1
# CELL(abcABC):    1.00000     1.00000     0.86293    90.00000    90.00000    90.00000  Step:          61  Bead:       0 positions{atomic_unit}  cell{atomic_unit}
       H -4.29971e-01 -7.48761e-01  2.29105e-01
1
# CELL(abcABC):    1.00000     1.00000     0.85836    90.00000    90.00000    90.00000  Step:          62  Bead:       0 positions{atomic_unit}  cell{atomic_unit}
       H -4.37533e-01 -7.59646e-01  2.35336e-01
1
# CELL(abcABC):    1.00000     1.00000     0.85527    90.00000    90.00000    90.00000  Step:          63  Bead:       0 positions{atomic_unit}  cell{atomic_unit}
       H -4.44788e-01 -7.70148e-01  2.40267e-01
1
# CELL(abcABC):    1.00000     1.00000     0.85233    90.00000    90.00000    90.00000  Step:          64  Bead:       0 positions{atomic_unit}  cell{atomic_unit}
       H -4.52946e-01 -7.80358e-01  2.47345e-01
1
# CELL(abcABC):    1.00000     1.00000     0.84763    90.00000    90.00000    90.00000  Step:          65  Bead:       0 positions{atomic_unit}  cell{atomic_unit}
       H -4.61127e-01 -7.92844e-01  2.53340e-01
1
# CELL(abcABC):    1.00000     1.00000     0.84545    90.00000    90.00000    90.00000  Step:          66  Bead:       0 positions{atomic_unit}  cell{atomic_unit}
       H -4.67371e-01 -8.03515e-01  2.62194e-01
1
# CELL(abcABC):    1.00000     1.00000     0.84668    90.00000    90.00000    90.00000  Step:          67  Bead:       0 positions{atomic_unit}  cell{atomic_unit}
       H -4.75530e-01 -8.12396e-01  2.72217e-01
1
# CELL(abcABC):    1.00000     1.00000     0.84666    90.00000    90.00000    90.00000  Step:          68  Bead:       0 positions{atomic_unit}  cell{atomic_unit}
       H -4.83899e-01 -8.23103e-01  2.82914e-01
1
# CELL(abcABC):    1.00000     1.00000     0.84975    90.00000    90.00000    90.00000  Step:          69  Bead:       0 positions{atomic_unit}  cell{atomic_unit}
       H -4.90528e-01 -8.34110e-01  2.96080e-01
1
# CELL(abcABC):    1.00000     1.00000     0.85352    90.00000    90.00000    90.00000  Step:          70  Bead:       0 positions{atomic_unit}  cell{atomic_unit}
       H -4.96568e-01 -8.46103e-01  3.07752e-01
1
# CELL(abcABC):    1.00000     1.00000     0.85735    90.00000    90.00000    90.00000  Step:          71  Bead:       0 positions{atomic_unit}  cell{atomic_unit}
       H -5.03095e-01 -8.57485e-01  3.21025e-01
1
# CELL(abcABC):    1.00000     1.00000     0.86269    90.00000    90.00000    90.00000  Step:          72  Bead:       0 positions{atomic_unit}  cell{atomic_unit}
       H -5.08628e-01 -8.68892e-01  3.35913e-01
1
# CELL(abcABC):    1.00000     1.00000     0.86791    90.00000    90.00000    90.00000  Step:          73  Bead:       0 positions{atomic_unit}  cell{atomic_unit}
       H -5.16767e-01 -8.80521e-01  3.51319e-01
1
# CELL(abcABC):    1.00000     1.00000     0.87573    90.00000    90.00000    90.00000  Step:          74  Bead:       0 positions{atomic_unit}  cell{atomic_unit}
       H -5.27555e-01 -8.91178e-01  3.69610e-01
1
# CELL(abcABC):    1.00000     1.00000     0.88320    90.00000    90.00000    90.00000  Step:          75  Bead:       0 positions{atomic_unit}  cell{atomic_unit}
       H -5.40778e-01 -9.04656e-01  3.86565e-01
1
# CELL(abcABC):    1.00000     1.00000     0.89102    90.00000    90.00000    90.00000  Step:          76  Bead:       0 positions{atomic_unit}  cell{atomic_unit}
       H -5.53730e-01 -9.16820e-01  4.05064e-01
1
# CELL(abcABC):    1.00000     1.00000     0.90028    90.00000    90.00000    90.00000  Step:          77  Bead:       0 positions{atomic_unit}  cell{atomic_unit}
       H -5.65614e-01 -9.29800e-01  4.24914e-01
1
# CELL(abcABC):    1.00000     1.00000     0.90840    90.00000    90.00000    90.00000  Step:          78  Bead:       0 positions{atomic_unit}  cell{atomic_unit}
       H -5.78132e-01 -9.43062e-01  4.42112e-01
1
# CELL(abcABC):    1.00000     1.00000     0.91603    90.00000    90.00000    90.00000  Step:          79  Bead:       0 positions{atomic_unit}  cell{atomic_unit}
       H -5.92426e-01 -9.56548e-01  4.60182e-01
1
# CELL(abcABC):    1.00000     1.00000     0.92438    90.00000    90.00000    90.00000  Step:          80  Bead:       0 positions{atomic_unit}  cell{atomic_unit}
       H -6.05944e-01 -9.71325e-01  4.77751e-01
1
# CELL(abcABC):    1.00000     1.00000     0.93192    90.00000    90.00000    90.00000  Step:          81  Bead:       0 positions{atomic_unit}  cell{atomic_unit}
       H -6.20644e-01 -9.86748e-01  4.96379e-01
1
# CELL(abcABC):    1.00000     1.00000     0.93916    90.00000    90.00000    90.00000  Step:          82  Bead:       0 positions{atomic_unit}  cell{atomic_unit}
       H -6.33730e-01 -1.00365e+00  5.14192e-01
1
# CELL(abcABC):    1.00000     1.00000     0.94336    90.00000    90.00000    90.00000  Step:          83  Bead:       0 positions{atomic_unit}  cell{atomic_unit}
       H -6.48084e-01 -1.01946e+00  5.31780e-01
1
# CELL(abcABC):    1.00000     1.00000     0.94908    90.00000    90.00000    90.00000  Step:          84  Bead:       0 positions{atomic_unit}  cell{atomic_unit}
       H -6.61860e-01 -1.03857e+00  5.50037e-01
1
# CELL(abcABC):    1.00000     1.00000     0.95450    90.00000    90.00000    90.00000  Step:          85  Bead:       0 positions{atomic_unit}  cell{atomic_unit}
       H -6.76255e-01 -1.05718e+00  5.67597e-01
1
# CELL(abcABC):    1.00000     1.00000     0.96173    90.00000    90.00000    90.00000  Step:          86  Bead:       0 positions{atomic_unit}  cell{atomic_unit}
       H -6.88243e-01 -1.07445e+00  5.87032e-01
1
# CELL(abcABC):    1.00000     1.00000     0.97128    90.00000    90.00000    90.00000  Step:          87  Bead:       0 positions{atomic_unit}  cell{atomic_unit}
       H -6.99563e-01 -1.09054e+00  6.08629e-01
1
# CELL(abcABC):    1.00000     1.00000     0.98159    90.00000    90.00000    90.00000  Step:          88  Bead:       0 positions{atomic_unit}  cell{atomic_unit}
       H -7.08832e-01 -1.10548e+00  6.31776e-01
1
# CELL(abcABC):    1.00000     1.00000     0.99251    90.00000    90.00000    90.00000  Step:          89  Bead:       0 positions{atomic_unit}  cell{atomic_unit}
       H -7.18159e-01 -1.11934e+00  6.55184e-01
1
# CELL(abcABC):    1.00000     1.00000     1.00425    90.00000    90.00000    90.00000  Step:          90  Bead:       0 positions{atomic_unit}  cell{atomic_unit}
       H -7.28425e-01 -1.13462e+00  6.78949e-01
1
# CELL(abcABC):    1.00000     1.00000     1.01647    90.00000    90.00000    90.00000  Step:          91  Bead:       0 positions{atomic_unit}  cell{atomic_unit}
       H -7.39732e-01 -1.15037e+00  7.04526e-01
1
# CELL(abcABC):    1.00000     1.00000     1.03006    90.00000    90.00000    90.00000  Step:          92  Bead:       0 positions{atomic_unit}  cell{atomic_unit}
       H -7.53285e-01 -1.16486e+00  7.31538e-01
1
# CELL(abcABC):    1.00000     1.00000     1.04342    90.00000    90.00000    90.00000  Step:          93  Bead:       0 positions{atomic_unit}  cell{atomic_unit}
       H -7.67180e-01 -1.18086e+00  7.56403e-01
1
# CELL(abcABC):    1.00000     1.00000     1.05836    90.00000    90.00000    90.00000  Step:          94  Bead:       0 positions{atomic_unit}  cell{atomic_unit}
       H -7.79999e-01 -1.19640e+00  7.81450e-01
1
# CELL(abcABC):    1.00000     1.00000     1.07318    90.00000    90.00000    90.00000  Step:          95  Bead:       0 positions{atomic_unit}  cell{atomic_unit}
       H -7.91659e-01 -1.21090e+00  8.05920e-01
1
# CELL(abcABC):    1.00000     1.00000     1.08806    90.00000    90.00000    90.00000  Step:          96  Bead:       0 positions{atomic_unit}  cell{atomic_unit}
       H -8.02556e-01 -1.22617e+00  8.29045e-01
1
# CELL(abcABC):    1.00000     1.00000     1.10360    90.00000    90.00000    90.00000  Step:          97  Bead:       0 positions{atomic_unit}  cell{atomic_unit}
       H -8.14097e-01 -1.24169e+00  8.51692e-01
1
# CELL(abcABC):    1.00000     1.00000     1.12100    90.00000    90.00000    90.00000  Step:          98  Bead:       0 positions{atomic_unit}  cell{atomic_unit}
       H -8.25227e-01 -1.25683e+00  8.77054e-01
1
# CELL(abcABC):    1.00000     1.00000     1.14203    90.00000    90.00000    90.00000  Step:          99  Bead:       0 positions{atomic_unit}  cell{atomic_unit}
       H -8.35496e-01 -1.27145e+00  9.05633e-01
1
# CELL(abcABC):    1.00000     1.00000     1.16204    90.00000    90.00000    90.00000  Step:         100  Bead:       0 positions{atomic_unit}  cell{atomic_unit}
       H -8.45201e-01 -1.28554e+00  9.34607e-01
