     152
# positions{angstrom}
Al  8.264099628 -6.687068593  6.822875234
Al  8.264116825 -3.343742897  6.822870206
Al -0.000267667 -3.343780472  0.003367432
Al -0.000284908 -6.687079526  0.003372241
 O  9.636795794 -6.132352751  8.058746437
 O  8.264581440 -5.015406565  5.946780593
 O  8.263660280 -1.672080440  7.699015548
 O  15.155457388 -6.132302970  12.407144710
 O  6.890005931 -6.132441091  8.057078845
 O  1.373219513 -6.132481843  12.407839982
 O  6.890097475 -3.898469906  8.057175065
 O  6.891473809 -2.789139479  5.587047754
 O  1.372839986 -2.789156024  1.238698552
 O  9.636890634 -3.898341806  8.058635854
 O  9.638077186 -2.789022908  5.588530573
 O  15.155060088 -2.788974646  1.238084726
 O  1.373205117 -3.898530408  12.407808658
 O  6.891566029 -0.555132980  5.586945330
 O  1.372816796 -0.555167195  1.238728357
 O  15.155047985 -0.554972402  1.238059734
 O  9.638170610 -0.555034465  5.588635202
 O  15.155437361 -3.898333894  12.407168372
 O -0.000150079 -1.672097135  12.766455742
 O  16.528408026 -5.015374285  0.879420094
 C  12.940384209 -3.808668552  10.665674462
 C  13.506550234 -5.015299777  11.114552420
 C  12.940344525 -6.221941019  10.665739172
 C  11.851868333 -6.221939488  9.800219387
 C  11.285665258 -5.015323570  9.351380711
 C  11.851914102 -3.808681690  9.800143910
 C  10.112520514 -5.015355429  8.415022817
 C  14.679729266 -5.015317722  12.050851906
 C  6.414260769 -5.015458219  8.413324504
 C  5.241466074 -5.015489714  9.350112851
 C  4.675528224 -3.808867672  9.799301564
 C  3.587581910 -3.808880115  10.665496060
 C  3.021663266 -5.015518336  11.114641840
 C  3.587565568 -6.222152147  10.665437017
 C  4.675506251 -6.222134552  9.799234149
 C  1.848937284 -5.015511763  12.051503800
 C  6.415912071 -1.672130747  5.230582932
 C  5.242754089 -1.672164140  4.294277542
 C  4.676552035 -0.465538892  3.845426953
 C  3.588040295 -0.465541996  2.979957171
 C  3.021786049 -1.672176466  2.531214148
 C  3.588008533 -2.878815269  2.980013911
 C  4.676517670 -2.878802218  3.845496146
 C  1.848550657 -1.672163497  1.594993554
 C  10.113869151 -1.672027234  5.232328709
 C  11.286678767 -1.671994318  4.295583309
 C  11.852606866 -2.878608897  3.846399311
 C  12.940608725 -2.878602375  2.980259403
 C  13.506582982 -1.671961829  2.531163120
 C  12.940627884 -0.465332280  2.980328426
 C  11.852634652 -0.465351542  3.846475328
 C  14.679361152 -1.671970391  1.594363444
 H  13.360623035 -3.816775979  2.643404735
 H  11.432559149 -3.816797570  4.183177072
 H  13.360633222 -2.870486035  11.002220640
 H  11.431723575 -2.870507165  9.463518075
 H  8.264302297 -5.015409996  5.033072551
 H  8.263926285 -1.672079119  8.612731631
 H -0.000007205 -1.672126138  11.852741192
 H  16.528243718 -5.015351861  1.793131727
 H  5.096734392 -3.816977569  4.182093090
 H  3.167731553 -3.817001434  2.643504418
 H  3.167589241 -2.870708492  11.002373450
 H  5.095559825 -2.870693415  9.462492913
 H  3.167787836  0.472634717  2.643398260
 H  5.096796217  0.472642286  4.181969455
 H  5.095517019 -7.160301140  9.462370198
 H  3.167553360 -7.160333892  11.002270309
 H  11.431654186 -7.160120946  9.463658790
 H  13.360568376 -7.160111774  11.002343853
 H  11.432610708  0.472824174  4.183315345
 H  13.360668440  0.472857805  2.643523288
Al  8.264137891 -0.000417543  6.822868535
Al  8.264155088  3.342908153  6.822863508
Al -0.000229403  3.342870578  0.003360734
Al -0.000246645 -0.000428476  0.003365543
 O  9.636834057  0.554298299  8.058739739
 O  8.264619703  1.671244485  5.946773895
 O  8.263698543  5.014570610  7.699008850
 O  15.155495651  0.554348080  12.407138011
 O  6.890044194  0.554209959  8.057072147
 O  1.373257776  0.554169207  12.407833284
 O  6.890135738  2.788181144  8.057168367
 O  6.891512072  3.897511571  5.587041056
 O  1.372878249  3.897495026  1.238691853
 O  9.636928897  2.788309244  8.058629156
 O  9.638115450  3.897628142  5.588523875
 O  15.155098351  3.897676404  1.238078028
 O  1.373243381  2.788120642  12.407801960
 O  6.891604292  6.131518070  5.586938632
 O  1.372855060  6.131483855  1.238721658
 O  15.155086248  6.131678648  1.238053036
 O  9.638208873  6.131616585  5.588628503
 O  15.155475625  2.788317156  12.407161674
 O -0.000111816  5.014553915  12.766449044
 O  16.528446289  1.671276765  0.879413396
 C  12.940422472  2.877982498  10.665667764
 C  13.506588497  1.671351273  11.114545721
 C  12.940382788  0.464710031  10.665732473
 C  11.851906597  0.464711562  9.800212689
 C  11.285703521  1.671327480  9.351374013
 C  11.851952365  2.877969359  9.800137211
 C  10.112558777  1.671295621  8.415016118
 C  14.679767529  1.671333328  12.050845208
 C  6.414299032  1.671192831  8.413317806
 C  5.241504337  1.671161336  9.350106153
 C  4.675566487  2.877783377  9.799294865
 C  3.587620173  2.877770935  10.665489362
 C  3.021701530  1.671132714  11.114635142
 C  3.587603831  0.464498903  10.665430319
 C  4.675544514  0.464516498  9.799227451
 C  1.848975547  1.671139287  12.051497101
 C  6.415950334  5.014520303  5.230576233
 C  5.242792352  5.014486910  4.294270844
 C  4.676590298  6.221112158  3.845420255
 C  3.588078558  6.221109054  2.979950472
 C  3.021824312  5.014474584  2.531207449
 C  3.588046796  3.807835781  2.980007213
 C  4.676555933  3.807848832  3.845489447
 C  1.848588920  5.014487553  1.594986856
 C  10.113907414  5.014623816  5.232322011
 C  11.286717030  5.014656732  4.295576610
 C  11.852645129  3.808042153  3.846392612
 C  12.940646988  3.808048675  2.980252705
 C  13.506621245  5.014689221  2.531156422
 C  12.940666147  6.221318770  2.980321728
 C  11.852672915  6.221299508  3.846468629
 C  14.679399415  5.014680659  1.594356745
 H  13.360661298  2.869875071  2.643398037
 H  11.432597412  2.869853480  4.183170374
 H  13.360671485  3.816165015  11.002213942
 H  11.431761838  3.816143885  9.463511377
 H  8.264340561  1.671241054  5.033065852
 H  8.263964548  5.014571931  8.612724933
 H  0.000031058  5.014524912  11.852734493
 H  16.528281981  1.671299189  1.793125029
 H  5.096772655  2.869673481  4.182086392
 H  3.167769816  2.869649616  2.643497719
 H  3.167627504  3.815942558  11.002366752
 H  5.095598088  3.815957635  9.462486214
 H  3.167826099  7.159285767  2.643391561
 H  5.096834480  7.159293336  4.181962756
 H  5.095555282 -0.473650090  9.462363500
 H  3.167591623 -0.473682842  11.002263611
 H  11.431692449 -0.473469896  9.463652091
 H  13.360606639 -0.473460724  11.002337155
 H  11.432648971  7.159475224  4.183308647
 H  13.360706703  7.159508855  2.643516589
