7
# CELL(abcABC):   13.38377    13.38377    13.38377    90.00000    90.00000    90.00000  Step:           0  Bead:       0 velocities{atomic_unit}  cell{angstrom}
       O  0.00000e+00  0.00000e+00  0.00000e+00
       O  0.00000e+00  0.00000e+00  0.00000e+00
       H  0.00000e+00  0.00000e+00  0.00000e+00
       H  0.00000e+00  0.00000e+00  0.00000e+00
       H  0.00000e+00  0.00000e+00  0.00000e+00
       H  0.00000e+00  0.00000e+00  0.00000e+00
       H  0.00000e+00  0.00000e+00  0.00000e+00
7
# CELL(abcABC):   13.38377    13.38377    13.38377    90.00000    90.00000    90.00000  Step:           1  Bead:       0 velocities{atomic_unit}  cell{angstrom}
       O  6.57899e-07  1.03454e-06 -8.79796e-07
       O -3.64667e-07 -1.10233e-06 -9.75734e-07
       H  1.09455e-05  1.37763e-05  3.23895e-05
       H -8.83446e-07  1.76970e-07  5.76474e-06
       H -1.24760e-05  2.80847e-05 -2.18226e-05
       H -2.04495e-05 -1.17316e-05  2.83119e-05
       H  1.82089e-05 -2.92303e-05 -1.51901e-05
7
# CELL(abcABC):   13.38377    13.38377    13.38377    90.00000    90.00000    90.00000  Step:           2  Bead:       0 velocities{atomic_unit}  cell{angstrom}
       O  2.24894e-06  2.19358e-06 -1.76766e-06
       O -1.61669e-06 -2.33835e-06 -2.23642e-06
       H  3.93378e-05  3.35524e-05  7.85061e-05
       H -1.65389e-06  3.26554e-07  1.07990e-05
       H -4.20474e-05  6.66726e-05 -5.50980e-05
       H -6.17565e-05 -2.87504e-05  6.47268e-05
       H  5.60842e-05 -6.95031e-05 -3.53756e-05
7
# CELL(abcABC):   13.38377    13.38377    13.38377    90.00000    90.00000    90.00000  Step:           3  Bead:       0 velocities{atomic_unit}  cell{angstrom}
       O  5.71543e-06  3.57995e-06 -2.65135e-06
       O -4.65842e-06 -3.81968e-06 -4.05169e-06
       H  1.01900e-04  6.49881e-05  1.51179e-04
       H -2.20298e-06  4.25170e-07  1.44251e-05
       H -1.05095e-04  1.25527e-04 -1.10656e-04
       H -1.43821e-04 -5.60502e-05  1.16684e-04
       H  1.32441e-04 -1.31085e-04 -6.52322e-05
7
# CELL(abcABC):   13.38377    13.38377    13.38377    90.00000    90.00000    90.00000  Step:           4  Bead:       0 velocities{atomic_unit}  cell{angstrom}
       O  1.11395e-05  5.10005e-06 -3.43658e-06
       O -9.59591e-06 -5.44800e-06 -6.36302e-06
       H  1.96156e-04  1.06706e-04  2.46799e-04
       H -2.54914e-06  4.83862e-07  1.67744e-05
       H -1.99132e-04  2.01618e-04 -1.86056e-04
       H -2.63175e-04 -9.24652e-05  1.81426e-04
       H  2.44198e-04 -2.10819e-04 -1.03390e-04
