3
# CELL(abcABC):   25.29166    25.29166    25.29166    90.00000    90.00000    90.00000  Step:           0  Bead:       0 f_centroid{atomic_unit}  cell{atomic_unit}
       O -7.34145e-03  4.55046e-03 -4.38801e-03
       H  1.78151e-03  1.10616e-02  1.67248e-02
       H  5.55994e-03 -1.56120e-02 -1.23368e-02
3
# CELL(abcABC):   25.29166    25.29166    25.29166    90.00000    90.00000    90.00000  Step:          20  Bead:       0 f_centroid{atomic_unit}  cell{atomic_unit}
       O  3.00660e-02 -6.51393e-02 -2.11490e-02
       H -1.36193e-02  5.76692e-02  5.16106e-02
       H -1.64467e-02  7.47005e-03 -3.04616e-02
3
# CELL(abcABC):   25.29166    25.29166    25.29166    90.00000    90.00000    90.00000  Step:          40  Bead:       0 f_centroid{atomic_unit}  cell{atomic_unit}
       O -8.54149e-03  6.99613e-03 -1.05965e-02
       H -8.06995e-03  5.15873e-02  7.46366e-02
       H  1.66114e-02 -5.85834e-02 -6.40401e-02
3
# CELL(abcABC):   25.29166    25.29166    25.29166    90.00000    90.00000    90.00000  Step:          60  Bead:       0 f_centroid{atomic_unit}  cell{atomic_unit}
       O  2.25533e-03  1.23581e-02  3.15938e-02
       H -1.72452e-02  5.30545e-02  6.25606e-02
       H  1.49899e-02 -6.54126e-02 -9.41544e-02
3
# CELL(abcABC):   25.29166    25.29166    25.29166    90.00000    90.00000    90.00000  Step:          80  Bead:       0 f_centroid{atomic_unit}  cell{atomic_unit}
       O  5.90243e-03 -1.75604e-03  1.37665e-03
       H -1.36026e-02  5.64416e-02  8.00102e-02
       H  7.70016e-03 -5.46855e-02 -8.13869e-02
3
# CELL(abcABC):   25.29166    25.29166    25.29166    90.00000    90.00000    90.00000  Step:         100  Bead:       0 f_centroid{atomic_unit}  cell{atomic_unit}
       O -3.77567e-03 -2.01726e-03 -2.78397e-03
       H -2.26877e-03  5.64479e-02  8.41792e-02
       H  6.04444e-03 -5.44307e-02 -8.13952e-02
