12
# CELL(abcABC):    9.63760    12.90683    10.20452   106.90000    90.17000   102.60000  Step:           0  Bead:       0 positions{angstrom}  cell{atomic_unit}
       K -2.60061e-01  4.58892e+00  2.50471e+00
       K  3.85412e+00  4.64484e-01  2.64901e+00
       O  3.04892e-01  4.81995e-01  3.55607e-01
       O  3.28917e+00  4.57140e+00  4.79811e+00
       O  1.20965e+00  3.88034e-01  3.61791e+00
       O  2.38441e+00  4.66537e+00  1.53581e+00
       O  2.37023e+00  1.41669e+00  4.99911e-01
       O  1.22383e+00  3.63671e+00  4.65381e+00
       O  4.19158e-01  2.82054e+00  5.72063e-01
       O  3.17490e+00  2.23286e+00  4.58166e+00
       S  9.56425e-01  1.57576e+00  9.79207e-02
       S  2.63763e+00  3.47764e+00  5.05580e+00
