12
# CELL(abcABC):    9.63760    12.90683    10.20452   106.90000    90.17000   102.60000  Step:           0  Bead:       0 forces{atomic_unit}  cell{atomic_unit}
       K  0.00000e+00  0.00000e+00  0.00000e+00
       K  0.00000e+00  0.00000e+00  0.00000e+00
       O  6.06894e-02  1.54204e-01 -8.58887e-01
       O -6.06894e-02 -1.54204e-01  8.58887e-01
       O  0.00000e+00  0.00000e+00  0.00000e+00
       O  0.00000e+00  0.00000e+00  0.00000e+00
       O -8.08011e-01  9.09125e-02 -2.29744e-01
       O  8.08011e-01 -9.09125e-02  2.29744e-01
       O  3.59961e-01 -8.33983e-01 -3.17668e-01
       O -3.59961e-01  8.33983e-01  3.17668e-01
       S -1.47189e-01 -2.56188e-01  7.82834e-01
       S  1.47189e-01  2.56189e-01 -7.82834e-01
