1
# CELL(abcABC):  188.97261   188.97261   188.97261    90.00000    90.00000    90.00000  Step:           0  Bead:       0 v_centroid{atomic_unit}  cell{atomic_unit}
       H -1.09479e-03  2.88759e-04 -3.72237e-04
1
# CELL(abcABC):  188.97261   188.97261   188.97261    90.00000    90.00000    90.00000  Step:           1  Bead:       0 v_centroid{atomic_unit}  cell{atomic_unit}
       H -1.09416e-03  2.88593e-04 -3.72023e-04
1
# CELL(abcABC):  188.97261   188.97261   188.97261    90.00000    90.00000    90.00000  Step:           2  Bead:       0 v_centroid{atomic_unit}  cell{atomic_unit}
       H -1.09227e-03  2.88095e-04 -3.71382e-04
1
# CELL(abcABC):  188.97261   188.97261   188.97261    90.00000    90.00000    90.00000  Step:           3  Bead:       0 v_centroid{atomic_unit}  cell{atomic_unit}
       H -1.08913e-03  2.87267e-04 -3.70313e-04
1
# CELL(abcABC):  188.97261   188.97261   188.97261    90.00000    90.00000    90.00000  Step:           4  Bead:       0 v_centroid{atomic_unit}  cell{atomic_unit}
       H -1.08474e-03  2.86108e-04 -3.68819e-04
1
# CELL(abcABC):  188.97261   188.97261   188.97261    90.00000    90.00000    90.00000  Step:           5  Bead:       0 v_centroid{atomic_unit}  cell{atomic_unit}
       H -1.07910e-03  2.84620e-04 -3.66901e-04
1
# CELL(abcABC):  188.97261   188.97261   188.97261    90.00000    90.00000    90.00000  Step:           6  Bead:       0 v_centroid{atomic_unit}  cell{atomic_unit}
       H -1.07222e-03  2.82805e-04 -3.64562e-04
1
# CELL(abcABC):  188.97261   188.97261   188.97261    90.00000    90.00000    90.00000  Step:           7  Bead:       0 v_centroid{atomic_unit}  cell{atomic_unit}
       H -1.06410e-03  2.80665e-04 -3.61803e-04
1
# CELL(abcABC):  188.97261   188.97261   188.97261    90.00000    90.00000    90.00000  Step:           8  Bead:       0 v_centroid{atomic_unit}  cell{atomic_unit}
       H -1.05477e-03  2.78202e-04 -3.58629e-04
1
# CELL(abcABC):  188.97261   188.97261   188.97261    90.00000    90.00000    90.00000  Step:           9  Bead:       0 v_centroid{atomic_unit}  cell{atomic_unit}
       H -1.04422e-03  2.75420e-04 -3.55042e-04
