3
# CELL(abcABC):   25.29166    25.29166    25.29166    90.00000    90.00000    90.00000  Step:           0  Bead:       0 positions{atomic_unit}  cell{atomic_unit}
       O  1.02130e+00 -1.84220e+00 -4.09276e-01
       H  3.47444e-01 -2.37735e+00 -2.03854e+00
       H  7.99951e-02 -3.68232e-01  1.74386e-01
3
# CELL(abcABC):   25.29166    25.29166    25.29166    90.00000    90.00000    90.00000  Step:           5  Bead:       0 positions{atomic_unit}  cell{atomic_unit}
       O  1.00769e+00 -1.85485e+00 -4.38760e-01
       H  3.16883e-01 -2.47334e+00 -1.93199e+00
       H  7.09505e-02 -2.56150e-01  6.23481e-02
3
# CELL(abcABC):   25.29166    25.29166    25.29166    90.00000    90.00000    90.00000  Step:          10  Bead:       0 positions{atomic_unit}  cell{atomic_unit}
       O  1.02916e+00 -1.81866e+00 -4.81727e-01
       H  2.94461e-01 -2.55955e+00 -1.81462e+00
       H  1.60512e-01 -1.18912e-01 -2.61884e-01
