216
# CELL(abcABC): 16.320000 16.320000 16.320000 90.0 90.0 90.0 positions{angstrom} cell{angstrom}
Si             -0.00961162     -0.00746084      0.00709017  
Si              1.36539157      1.36590000      1.35807070  
Si              2.72324915      2.71099725     -0.00841581  
Si              4.07109827      4.07645750      1.35372310  
Si              2.72821635     -0.00291745      2.72414316  
Si              4.07563767      1.37000181      4.07992216  
Si              0.00272674      2.72234775      2.71577483  
Si              1.35924994      4.08664687      4.08443208  
Si              0.00024179      0.00257656      5.43261002  
Si              1.35349412      1.36377324      6.80283990  
Si              2.71075810      2.71321022      5.43986866  
Si              4.07668810      4.08708015      6.79665488  
Si              2.72407633      0.00900774      8.15509466  
Si              4.07321660      1.36995546     -6.79666650  
Si             -0.00167618      2.72822944     -8.15471642  
Si              1.36116953      4.08624435     -6.79872919  
Si              0.00066986     -0.00387358     -5.44705503  
Si              1.36805770      1.36435186     -4.07677688  
Si              2.71055953      2.71168241     -5.43259691  
Si              4.07077378      4.08473671     -4.08794173  
Si              2.71225283      0.00742371     -2.72350893  
Si              4.07827269      1.36089420     -1.36082912  
Si              0.00333643      2.72788422     -2.71417418  
Si              1.36286125      4.08541900     -1.35912934  
Si              0.00071008      5.44582796      0.00734382  
Si              1.35480194      6.80557088      1.35147937  
Si              2.71105559      8.15287182     -0.00657517  
Si              4.07937458     -6.79383705      1.36753576  
Si              2.72798380      5.44656459      2.72074744  
Si              4.07310590      6.79820341      4.08426941  
Si             -0.00506315     -8.15199882      2.71662298  
Si              1.35924992     -6.80083423      4.07516265  
Si             -0.00016430      5.44349395      5.43724379  
Si              1.36369149      6.80930402      6.79416841  
Si              2.71668545      8.15225130      5.44206221  
Si              4.07780133     -6.80709628      6.80638906  
Si              2.72792072      5.44624435     -8.15115805  
Si              4.08509909      6.79624900     -6.80726129  
Si              0.00807118      8.15665322     -8.15781045  
Si              1.36646581     -6.80668719     -6.79788895  
Si              0.00271357      5.44810284     -5.43611705  
Si              1.36771788      6.80366332     -4.08784652  
Si              2.72414156     -8.15702620     -5.43241040  
Si              4.07808074     -6.80202423     -4.07421254  
Si              2.71385946      5.43223346     -2.71283799  
Si              4.08420011      6.79940351     -1.36070813  
Si              0.00561428      8.15750612     -2.72937257  
Si              1.35352682     -6.79363557     -1.36348346  
Si              0.00425544     -5.43608501      0.00593089  
Si              1.35744255     -4.07861164      1.36526189  
Si              2.72912208     -2.71643580      0.00056505  
Si              4.07664688     -1.35713743      1.36221424  
Si              2.72057424     -5.43519061      2.71583814  
Si              4.08930296     -4.07650229      4.07628100  
Si             -0.00748906     -2.72415382      2.71151678  
Si              1.36915062     -1.35560970      4.07027178  
Si             -0.00231395     -5.43413497      5.43295818  
Si              1.36413211     -4.08326142      6.79553814  
Si              2.71238026     -2.72796175      5.44895902  
Si              4.07549631     -1.36750363      6.80734216  
Si              2.72106131     -5.44482896     -8.15805292  
Si              4.08076217     -4.08789384     -6.79476971  
Si              0.00865609     -2.71580555     -8.15452985  
Si              1.35580713     -1.35267454     -6.80311341  
Si             -0.00202738     -5.44382954     -5.43728304  
Si              1.35567788     -4.08226238     -4.07859550  
Si              2.72831730     -2.72875475     -5.44027720  
Si              4.08737158     -1.35019334     -4.08406086  
Si              2.72438016     -5.44363017     -2.71106757  
Si              4.08664289     -4.08208654     -1.35905863  
Si             -0.00800499     -2.72194368     -2.71139513  
Si              1.35222872     -1.35423429     -1.36926205  
Si              5.43515352     -0.00679504     -0.00316554  
Si              6.80297065      1.35520446      1.36736342  
Si             -8.15872202      2.71859192     -0.00448444  
Si             -6.79558558      4.08864725      1.35318764  
Si             -8.15206078      0.00146150      2.72363611  
Si             -6.80943665      1.36735480      4.07832463  
Si              5.43767888      2.71149498      2.72893508  
Si              6.79849900      4.07464617      4.08712511  
Si              5.43684340     -0.00281131      5.43186139  
Si              6.79120988      1.35406425      6.79997613  
Si             -8.15231869      2.72085716      5.44299214  
Si             -6.79786141      4.07801391      6.79285102  
Si              8.15400166      0.00139826      8.15423219  
Si             -6.79919068      1.35764001     -6.79812606  
Si              5.43701315      2.71744141     -8.15879153  
Si              6.79131700      4.07110602     -6.80159676  
Si              5.44827143      0.00568216     -5.43101662  
Si              6.80240721      1.36593331     -4.08432215  
Si             -8.15080111      2.71549707     -5.43795945  
Si             -6.79510461      4.07573485     -4.07394912  
Si              8.15270302      0.00965036     -2.72750323  
Si             -6.79827865      1.35265390     -1.36507574  
Si              5.44824624      2.72061994     -2.72761576  
Si              6.80028427      4.07346497     -1.36076569  
Si              5.43898048      5.43987082     -0.00028987  
Si              6.80915852      6.80158077      1.35360792  
Si              8.15646041     -8.15839440      0.00218719  
Si             -6.79340565     -6.80224741      1.36074283  
Si              8.15949332      5.43405159      2.72336308  
Si             -6.80675600      6.79859113      4.08460141  
Si              5.43928285      8.15546058      2.72489056  
Si              6.79801611     -6.80476798      4.08130530  
Si              5.43891739      5.44221674      5.43834385  
Si              6.80183112      6.80658999      6.80641660  
Si              8.15589778     -8.15610396      5.43298885  
Si             -6.79112535     -6.79148412      6.79393543  
Si              8.15293567      5.43547676      8.15230579  
Si             -6.79397506      6.79903662     -6.79817232  
Si              5.44268724      8.15641107     -8.15114657  
Si              6.80559421     -6.79812006     -6.80572994  
Si              5.44090221      5.43413965     -5.43348759  
Si              6.80738212      6.80431999     -4.08496695  
Si             -8.15082926      8.15205459     -5.43810713  
Si             -6.80877273     -6.80093733     -4.08600476  
Si              8.15366558      5.43398804     -2.71809713  
Si             -6.79947842      6.80282996     -1.35113955  
Si              5.44502131      8.15294330     -2.72258447  
Si              6.80284004     -6.79878155     -1.35141832  
Si              5.44796308     -5.43925218      0.00307311  
Si              6.80857074     -4.08161833      1.35429946  
Si              8.15726226     -2.72204998      0.00278742  
Si             -6.79593611     -1.36010405      1.35853168  
Si              8.15468135     -5.43735796      2.72409427  
Si             -6.80621479     -4.08627392      4.08156933  
Si              5.44085653     -2.71624235      2.71380297  
Si              6.80548275     -1.36082531      4.08624436  
Si              5.44391680     -5.43969308      5.44849271  
Si              6.79237589     -4.08202513      6.80120078  
Si              8.15877345     -2.72368434      5.44304183  
Si             -6.80489958     -1.35342379      6.80469575  
Si              8.15114022     -5.43787276     -8.15866790  
Si             -6.79504859     -4.08428899     -6.79158287  
Si              5.43607157     -2.72801612      8.15455307  
Si              6.80046143     -1.36217216     -6.80448093  
Si              5.44892201     -5.44490459     -5.44513668  
Si              6.80384885     -4.07615811     -4.07788608  
Si              8.15922369     -2.72183401     -5.44529759  
Si             -6.80064833     -1.36821086     -4.08266118  
Si             -8.15406277     -5.44123113     -2.71783973  
Si             -6.79720232     -4.08417399     -1.35211433  
Si              5.44449172     -2.72901591     -2.71628672  
Si              6.80527005     -1.35500623     -1.36680070  
Si             -5.43054787      0.00062296      0.00799016  
Si             -4.08863392      1.36608786      1.35838384  
Si             -2.72927783      2.72821504      0.00831819  
Si             -1.35454511      4.07389909      1.35733346  
Si             -2.72474399      0.00115423      2.72780369  
Si             -1.35772528      1.35359772      4.08451738  
Si             -5.43653977      2.72990819      2.71035410  
Si             -4.08328410      4.07874193      4.07793688  
Si             -5.44726123      0.00252485      5.44172982  
Si             -4.07104085      1.35618860      6.79153669  
Si             -2.72369491      2.71629956      5.43953963  
Si             -1.35982082      4.08409897      6.79997368  
Si             -2.72569576     -0.00811718     -8.15977207  
Si             -1.36674902      1.36333028     -6.79629643  
Si             -5.43821663      2.71643415     -8.15751647  
Si             -4.08256911      4.08685230     -6.79670148  
Si             -5.43544176      0.00886580     -5.44824383  
Si             -4.08633990      1.35847795     -4.08704090  
Si             -2.71588807      2.72793485     -5.44816299  
Si             -1.36216166      4.07481324     -4.08777560  
Si             -2.72187481      0.00972372     -2.72676928  
Si             -1.36578459      1.36010320     -1.35989678  
Si             -5.44618916      2.72125029     -2.72529597  
Si             -4.08881542      4.07975916     -1.35454571  
Si             -5.43625735      5.44125148     -0.00164349  
Si             -4.08508106      6.80065793      1.36849591  
Si             -2.71541088     -8.15986940     -0.00246819  
Si             -1.36431059     -6.79781886      1.35083028  
Si             -2.72846481      5.44179247      2.71772236  
Si             -1.36074890      6.79846892      4.07597275  
Si             -5.43952732     -8.15075347      2.71944956  
Si             -4.07353336     -6.79759922      4.07875816  
Si             -5.44260503      5.43798909      5.44039877  
Si             -4.08554900      6.80545477      6.80291787  
Si             -2.71089694      8.15422453      5.44835167  
Si             -1.35743562     -6.80495318      6.80476041  
Si             -2.71157631      5.43130483      8.15672567  
Si             -1.36434475      6.79629737     -6.80216933  
Si             -5.44822519     -8.15441568      8.15735450  
Si             -4.07429455     -6.79190101     -6.80235082  
Si             -5.44584764      5.43648131     -5.44860410  
Si             -4.07374163      6.79516081     -4.07260577  
Si             -2.71907821      8.15253840     -5.44373693  
Si             -1.36827735     -6.80684926     -4.08357858  
Si             -2.72934104      5.44312562     -2.72352740  
Si             -1.36382473      6.80303593     -1.36494221  
Si             -5.43907064     -8.15165683     -2.72353100  
Si             -4.07594543     -6.79706953     -1.36799470  
Si             -5.44872496     -5.44275543      0.00623960  
Si             -4.08757368     -4.08489839      1.36516828  
Si             -2.71620354     -2.72678567     -0.00279293  
Si             -1.36064223     -1.36039124      1.36888136  
Si             -2.72648776     -5.43925137      2.72421609  
Si             -1.35184922     -4.08709322      4.08043542  
Si             -5.43585097     -2.71988302      2.72617762  
Si             -4.07117827     -1.35698735      4.07725570  
Si             -5.43665376     -5.43999854      5.44282385  
Si             -4.08455962     -4.08465718      6.79814291  
Si             -2.72087080     -2.71280969      5.43908566  
Si             -1.35948595     -1.35681123      6.79047331  
Si             -2.72671242     -5.44773134      8.15113410  
Si             -1.35588340     -4.08267268     -6.80813762  
Si             -5.44022692     -2.71266073      8.15743242  
Si             -4.07561122     -1.36148367     -6.79463654  
Si             -5.44173984     -5.43803477     -5.43645582  
Si             -4.07654447     -4.08840008     -4.07586294  
Si             -2.72568547     -2.72312132     -5.44684982  
Si             -1.36603222     -1.36831446     -4.07419774  
Si             -2.71422349     -5.43999273     -2.71299251  
Si             -1.35872137     -4.08273775     -1.35383309  
Si             -5.44366259     -2.71495242     -2.71124168  
Si             -4.07283649     -1.35492832     -1.35597808  
