1
CELL(abcABC):  200.000000 200.000000 200.000000 90.000000 90.000000 90.000000 cell{atomic_unit}  Traj: positions{angstrom}   Bead:       0
D -0.6094619317801879 1.6104827368065263e-24 1.1081815923000925e-22
1
CELL(abcABC):  200.000000 200.000000 200.000000 90.000000 90.000000 90.000000 cell{atomic_unit}  Traj: positions{angstrom}   Bead:       1
D -0.5557417708222971 1.677696855769233e-23 1.7841995300134962e-22
1
CELL(abcABC):  200.000000 200.000000 200.000000 90.000000 90.000000 90.000000 cell{atomic_unit}  Traj: positions{angstrom}   Bead:       2
D -0.4489189134472904 3.7784273216144975e-23 2.384135693720897e-22
1
CELL(abcABC):  200.000000 200.000000 200.000000 90.000000 90.000000 90.000000 cell{atomic_unit}  Traj: positions{angstrom}   Bead:       3
D -0.2934978149735781 1.1035337119296778e-22 1.9138820804253295e-22
1
CELL(abcABC):  200.000000 200.000000 200.000000 90.000000 90.000000 90.000000 cell{atomic_unit}  Traj: positions{angstrom}   Bead:       4
D -0.1022951284738769 -1.6980250362903467e-22 -4.1282364039520153e-22
1
CELL(abcABC):  200.000000 200.000000 200.000000 90.000000 90.000000 90.000000 cell{atomic_unit}  Traj: positions{angstrom}   Bead:       5
D 0.10229512847387678 -5.199646493634632e-22 -9.71280838771004e-22
1
CELL(abcABC):  200.000000 200.000000 200.000000 90.000000 90.000000 90.000000 cell{atomic_unit}  Traj: positions{angstrom}   Bead:       6
D 0.29349781497357785 5.575634135558346e-22 9.288624159859659e-22
1
CELL(abcABC):  200.000000 200.000000 200.000000 90.000000 90.000000 90.000000 cell{atomic_unit}  Traj: positions{angstrom}   Bead:       7
D 0.44891891344729024 -2.1876152337489973e-22 -3.31414797715082e-22
1
CELL(abcABC):  200.000000 200.000000 200.000000 90.000000 90.000000 90.000000 cell{atomic_unit}  Traj: positions{angstrom}   Bead:       8
D 0.555741770822297 4.2618728081645054e-23 6.097192636298886e-23
1
CELL(abcABC):  200.000000 200.000000 200.000000 90.000000 90.000000 90.000000 cell{atomic_unit}  Traj: positions{angstrom}   Bead:       9
D 0.609461931780188 -4.3411928409946874e-24 -6.6060611595870926e-24
