172
# CELL(abcABC):   37.24200    37.24200    37.24200    90.00000    90.00000    90.00000  positions{atomic_unit}  cell{atomic_unit}
      H2  0.00000e+00  0.00000e+00  0.00000e+00
      H2  5.31500e+00  5.31500e+00  0.00000e+00
      H2  5.31500e+00  0.00000e+00  5.31500e+00
      H2  0.00000e+00  5.31500e+00  5.31500e+00
      H2  0.00000e+00  0.00000e+00  1.06300e+01
      H2  5.31500e+00  5.31500e+00  1.06300e+01
      H2  5.31500e+00  0.00000e+00  1.59450e+01
      H2  0.00000e+00  5.31500e+00  1.59450e+01
      H2  0.00000e+00  0.00000e+00  2.12610e+01
      H2  5.31500e+00  5.31500e+00  2.12610e+01
      H2  5.31500e+00  0.00000e+00  2.65760e+01
      H2  0.00000e+00  5.31500e+00  2.65760e+01
      H2  0.00000e+00  0.00000e+00  3.18910e+01
      H2  5.31500e+00  5.31500e+00  3.18910e+01
      H2  0.00000e+00  1.06300e+01  0.00000e+00
      H2  5.31500e+00  1.59450e+01  0.00000e+00
      H2  5.31500e+00  1.06300e+01  5.31500e+00
      H2  0.00000e+00  1.59450e+01  5.31500e+00
      H2  0.00000e+00  1.06300e+01  1.06300e+01
      H2  5.31500e+00  1.59450e+01  1.06300e+01
      H2  5.31500e+00  1.06300e+01  1.59450e+01
      H2  0.00000e+00  1.59450e+01  1.59450e+01
      H2  0.00000e+00  1.06300e+01  2.12610e+01
      H2  5.31500e+00  1.59450e+01  2.12610e+01
      H2  5.31500e+00  1.06300e+01  2.65760e+01
      H2  0.00000e+00  1.59450e+01  2.65760e+01
      H2  0.00000e+00  1.06300e+01  3.18910e+01
      H2  5.31500e+00  1.59450e+01  3.18910e+01
      H2  0.00000e+00  2.12610e+01  0.00000e+00
      H2  5.31500e+00  2.65760e+01  0.00000e+00
      H2  5.31500e+00  2.12610e+01  5.31500e+00
      H2  0.00000e+00  2.65760e+01  5.31500e+00
      H2  0.00000e+00  2.12610e+01  1.06300e+01
      H2  5.31500e+00  2.65760e+01  1.06300e+01
      H2  5.31500e+00  2.12610e+01  1.59450e+01
      H2  0.00000e+00  2.65760e+01  1.59450e+01
      H2  0.00000e+00  2.12610e+01  2.12610e+01
      H2  5.31500e+00  2.65760e+01  2.12610e+01
      H2  5.31500e+00  2.12610e+01  2.65760e+01
      H2  0.00000e+00  2.65760e+01  2.65760e+01
      H2  0.00000e+00  2.12610e+01  3.18910e+01
      H2  5.31500e+00  2.65760e+01  3.18910e+01
      H2  0.00000e+00  3.18910e+01  0.00000e+00
      H2  5.31500e+00  3.18910e+01  5.31500e+00
      H2  0.00000e+00  3.18910e+01  1.06300e+01
      H2  5.31500e+00  3.18910e+01  1.59450e+01
      H2  0.00000e+00  3.18910e+01  2.12610e+01
      H2  5.31500e+00  3.18910e+01  2.65760e+01
      H2  0.00000e+00  3.18910e+01  3.18910e+01
      H2  1.06300e+01  0.00000e+00  0.00000e+00
      H2  1.59450e+01  5.31500e+00  0.00000e+00
      H2  1.59450e+01  0.00000e+00  5.31500e+00
      H2  1.06300e+01  5.31500e+00  5.31500e+00
      H2  1.06300e+01  0.00000e+00  1.06300e+01
      H2  1.59450e+01  5.31500e+00  1.06300e+01
      H2  1.59450e+01  0.00000e+00  1.59450e+01
      H2  1.06300e+01  5.31500e+00  1.59450e+01
      H2  1.06300e+01  0.00000e+00  2.12610e+01
      H2  1.59450e+01  5.31500e+00  2.12610e+01
      H2  1.59450e+01  0.00000e+00  2.65760e+01
      H2  1.06300e+01  5.31500e+00  2.65760e+01
      H2  1.06300e+01  0.00000e+00  3.18910e+01
      H2  1.59450e+01  5.31500e+00  3.18910e+01
      H2  1.06300e+01  1.06300e+01  0.00000e+00
      H2  1.59450e+01  1.59450e+01  0.00000e+00
      H2  1.59450e+01  1.06300e+01  5.31500e+00
      H2  1.06300e+01  1.59450e+01  5.31500e+00
      H2  1.06300e+01  1.06300e+01  1.06300e+01
      H2  1.59450e+01  1.59450e+01  1.06300e+01
      H2  1.59450e+01  1.06300e+01  1.59450e+01
      H2  1.06300e+01  1.59450e+01  1.59450e+01
      H2  1.06300e+01  1.06300e+01  2.12610e+01
      H2  1.59450e+01  1.59450e+01  2.12610e+01
      H2  1.59450e+01  1.06300e+01  2.65760e+01
      H2  1.06300e+01  1.59450e+01  2.65760e+01
      H2  1.06300e+01  1.06300e+01  3.18910e+01
      H2  1.59450e+01  1.59450e+01  3.18910e+01
      H2  1.06300e+01  2.12610e+01  0.00000e+00
      H2  1.59450e+01  2.65760e+01  0.00000e+00
      H2  1.59450e+01  2.12610e+01  5.31500e+00
      H2  1.06300e+01  2.65760e+01  5.31500e+00
      H2  1.06300e+01  2.12610e+01  1.06300e+01
      H2  1.59450e+01  2.65760e+01  1.06300e+01
      H2  1.59450e+01  2.12610e+01  1.59450e+01
      H2  1.06300e+01  2.65760e+01  1.59450e+01
      H2  1.06300e+01  2.12610e+01  2.12610e+01
      H2  1.59450e+01  2.65760e+01  2.12610e+01
      H2  1.59450e+01  2.12610e+01  2.65760e+01
      H2  1.06300e+01  2.65760e+01  2.65760e+01
      H2  1.06300e+01  2.12610e+01  3.18910e+01
      H2  1.59450e+01  2.65760e+01  3.18910e+01
      H2  1.06300e+01  3.18910e+01  0.00000e+00
      H2  1.59450e+01  3.18910e+01  5.31500e+00
      H2  1.06300e+01  3.18910e+01  1.06300e+01
      H2  1.59450e+01  3.18910e+01  1.59450e+01
      H2  1.06300e+01  3.18910e+01  2.12610e+01
      H2  1.59450e+01  3.18910e+01  2.65760e+01
      H2  1.06300e+01  3.18910e+01  3.18910e+01
      H2  2.12610e+01  0.00000e+00  0.00000e+00
      H2  2.65760e+01  5.31500e+00  0.00000e+00
      H2  2.65760e+01  0.00000e+00  5.31500e+00
      H2  2.12610e+01  5.31500e+00  5.31500e+00
      H2  2.12610e+01  0.00000e+00  1.06300e+01
      H2  2.65760e+01  5.31500e+00  1.06300e+01
      H2  2.65760e+01  0.00000e+00  1.59450e+01
      H2  2.12610e+01  5.31500e+00  1.59450e+01
      H2  2.12610e+01  0.00000e+00  2.12610e+01
      H2  2.65760e+01  5.31500e+00  2.12610e+01
      H2  2.65760e+01  0.00000e+00  2.65760e+01
      H2  2.12610e+01  5.31500e+00  2.65760e+01
      H2  2.12610e+01  0.00000e+00  3.18910e+01
      H2  2.65760e+01  5.31500e+00  3.18910e+01
      H2  2.12610e+01  1.06300e+01  0.00000e+00
      H2  2.65760e+01  1.59450e+01  0.00000e+00
      H2  2.65760e+01  1.06300e+01  5.31500e+00
      H2  2.12610e+01  1.59450e+01  5.31500e+00
      H2  2.12610e+01  1.06300e+01  1.06300e+01
      H2  2.65760e+01  1.59450e+01  1.06300e+01
      H2  2.65760e+01  1.06300e+01  1.59450e+01
      H2  2.12610e+01  1.59450e+01  1.59450e+01
      H2  2.12610e+01  1.06300e+01  2.12610e+01
      H2  2.65760e+01  1.59450e+01  2.12610e+01
      H2  2.65760e+01  1.06300e+01  2.65760e+01
      H2  2.12610e+01  1.59450e+01  2.65760e+01
      H2  2.12610e+01  1.06300e+01  3.18910e+01
      H2  2.65760e+01  1.59450e+01  3.18910e+01
      H2  2.12610e+01  2.12610e+01  0.00000e+00
      H2  2.65760e+01  2.65760e+01  0.00000e+00
      H2  2.65760e+01  2.12610e+01  5.31500e+00
      H2  2.12610e+01  2.65760e+01  5.31500e+00
      H2  2.12610e+01  2.12610e+01  1.06300e+01
      H2  2.65760e+01  2.65760e+01  1.06300e+01
      H2  2.65760e+01  2.12610e+01  1.59450e+01
      H2  2.12610e+01  2.65760e+01  1.59450e+01
      H2  2.12610e+01  2.12610e+01  2.12610e+01
      H2  2.65760e+01  2.65760e+01  2.12610e+01
      H2  2.65760e+01  2.12610e+01  2.65760e+01
      H2  2.12610e+01  2.65760e+01  2.65760e+01
      H2  2.12610e+01  2.12610e+01  3.18910e+01
      H2  2.65760e+01  2.65760e+01  3.18910e+01
      H2  2.12610e+01  3.18910e+01  0.00000e+00
      H2  2.65760e+01  3.18910e+01  5.31500e+00
      H2  2.12610e+01  3.18910e+01  1.06300e+01
      H2  2.65760e+01  3.18910e+01  1.59450e+01
      H2  2.12610e+01  3.18910e+01  2.12610e+01
      H2  2.65760e+01  3.18910e+01  2.65760e+01
      H2  2.12610e+01  3.18910e+01  3.18910e+01
      H2  3.18910e+01  0.00000e+00  0.00000e+00
      H2  3.18910e+01  5.31500e+00  5.31500e+00
      H2  3.18910e+01  0.00000e+00  1.06300e+01
      H2  3.18910e+01  5.31500e+00  1.59450e+01
      H2  3.18910e+01  0.00000e+00  2.12610e+01
      H2  3.18910e+01  5.31500e+00  2.65760e+01
      H2  3.18910e+01  0.00000e+00  3.18910e+01
      H2  3.18910e+01  1.06300e+01  0.00000e+00
      H2  3.18910e+01  1.59450e+01  5.31500e+00
      H2  3.18910e+01  1.06300e+01  1.06300e+01
      H2  3.18910e+01  1.59450e+01  1.59450e+01
      H2  3.18910e+01  1.06300e+01  2.12610e+01
      H2  3.18910e+01  1.59450e+01  2.65760e+01
      H2  3.18910e+01  1.06300e+01  3.18910e+01
      H2  3.18910e+01  2.12610e+01  0.00000e+00
      H2  3.18910e+01  2.65760e+01  5.31500e+00
      H2  3.18910e+01  2.12610e+01  1.06300e+01
      H2  3.18910e+01  2.65760e+01  1.59450e+01
      H2  3.18910e+01  2.12610e+01  2.12610e+01
      H2  3.18910e+01  2.65760e+01  2.65760e+01
      H2  3.18910e+01  2.12610e+01  3.18910e+01
      H2  3.18910e+01  3.18910e+01  0.00000e+00
      H2  3.18910e+01  3.18910e+01  1.06300e+01
      H2  3.18910e+01  3.18910e+01  2.12610e+01
      H2  3.18910e+01  3.18910e+01  3.18910e+01
