192
# CELL(abcABC):   23.84559    23.84559    23.84559    90.00000    90.00000    90.00000  Step:       60000  Bead:       0 x_centroid{atomic_unit}  cell{atomic_unit}
       O -3.23938e+01  5.92321e+01 -2.24749e+01
       H -3.22299e+01  5.79750e+01 -2.11066e+01
       H -3.17359e+01  5.84537e+01 -2.40015e+01
       O  5.07695e+01  8.40478e+01 -5.88802e+01
       H  5.12033e+01  8.29053e+01 -6.02021e+01
       H  5.23373e+01  8.49227e+01 -5.88429e+01
       O  1.05272e+01  2.97933e+01 -5.09895e+01
       H  1.04655e+01  2.93208e+01 -4.92386e+01
       H  1.06960e+01  2.84324e+01 -5.20301e+01
       O  7.64396e+01 -6.07400e+01 -1.01813e+02
       H  7.59218e+01 -5.99711e+01 -1.03371e+02
       H  7.54087e+01 -5.98164e+01 -1.00557e+02
       O  7.26229e+01  1.15540e+02  5.58335e+01
       H  7.33098e+01  1.17079e+02  5.54166e+01
       H  7.17930e+01  1.15925e+02  5.73665e+01
       O -3.07313e+01  1.81493e+01 -4.67385e+00
       H -2.95738e+01  1.69583e+01 -4.02632e+00
       H -3.03918e+01  1.82364e+01 -6.51996e+00
       O  1.56747e+01 -1.51938e+01 -8.24734e+00
       H  1.42544e+01 -1.42682e+01 -9.11134e+00
       H  1.58807e+01 -1.48623e+01 -6.40221e+00
       O -7.85342e+00  3.27530e+01  9.24079e+01
       H -6.38965e+00  3.16499e+01  9.25778e+01
       H -9.14005e+00  3.15333e+01  9.26489e+01
       O  7.66547e+01 -4.66432e+01  7.30224e+01
       H  7.52244e+01 -4.72368e+01  7.19480e+01
       H  7.74284e+01 -4.81140e+01  7.37603e+01
       O -2.80180e+01 -1.06170e+02 -4.41111e+01
       H -2.83671e+01 -1.05916e+02 -4.23682e+01
       H -2.96152e+01 -1.06551e+02 -4.49037e+01
       O -9.62275e+01  3.87227e+01  1.04630e+01
       H -9.77489e+01  3.77715e+01  1.10442e+01
       H -9.46097e+01  3.80349e+01  1.11388e+01
       O -1.01491e+02  8.38182e+01  5.65410e+01
       H -1.02914e+02  8.49695e+01  5.65703e+01
       H -1.00970e+02  8.35604e+01  5.84091e+01
       O  1.00457e+01 -6.13092e+01 -3.01469e+01
       H  8.33538e+00 -6.09090e+01 -3.02122e+01
       H  9.94566e+00 -6.27190e+01 -2.90403e+01
       O  8.09354e+01 -4.68003e+01  1.84253e+01
       H  8.17009e+01 -4.76985e+01  1.98214e+01
       H  8.04262e+01 -4.82431e+01  1.73822e+01
       O -3.29831e+01 -7.75375e+00  2.99345e+01
       H -3.21675e+01 -8.74876e+00  2.86528e+01
       H -3.17385e+01 -6.57634e+00  3.05005e+01
       O -7.75512e+01 -5.20101e+01 -3.33330e+01
       H -7.83365e+01 -5.32496e+01 -3.44693e+01
       H -7.88214e+01 -5.07091e+01 -3.29493e+01
       O  2.15042e+00 -4.64437e+01 -5.38723e+01
       H  3.43544e+00 -4.52229e+01 -5.33233e+01
       H  1.43546e+00 -4.69865e+01 -5.23789e+01
       O -2.17116e+01  1.01278e+02 -1.10717e+02
       H -2.07755e+01  9.97577e+01 -1.10624e+02
       H -2.30622e+01  1.01127e+02 -1.09514e+02
       O  1.03020e+02  1.96518e+01  2.53066e+01
       H  1.02692e+02  1.95326e+01  2.71832e+01
       H  1.04821e+02  1.93160e+01  2.53636e+01
       O  9.65616e+01  5.47543e+01 -7.10316e-01
       H  9.48030e+01  5.43178e+01 -1.18861e+00
       H  9.76085e+01  5.36511e+01 -1.71585e+00
       O -2.92254e+01  2.78058e+01 -8.70330e+00
       H -2.78582e+01  2.79404e+01 -9.92016e+00
       H -3.03840e+01  2.91194e+01 -9.09586e+00
       O  1.88801e+01  1.94071e+01  7.83879e+01
       H  1.84597e+01  2.08838e+01  7.94688e+01
       H  2.01790e+01  1.97649e+01  7.72573e+01
       O -2.32422e+00  6.26122e+01 -7.64014e+01
       H -1.14596e+00  6.14685e+01 -7.55837e+01
       H -2.95351e+00  6.16801e+01 -7.77636e+01
       O  1.09535e+02 -7.24443e+00  3.63500e+01
       H  1.08635e+02 -6.18369e+00  3.74748e+01
       H  1.08736e+02 -8.81966e+00  3.64565e+01
       O -8.63065e+01  5.23018e+01  3.08736e+01
       H -8.64331e+01  5.23510e+01  2.89840e+01
       H -8.61228e+01  5.39571e+01  3.12672e+01
       O  3.57526e+01 -9.95122e+00  2.09012e+01
       H  3.52508e+01 -1.12848e+01  1.97861e+01
       H  3.75253e+01 -9.40967e+00  2.06355e+01
       O -2.85800e+01  7.36043e+00  2.82989e+00
       H -2.79158e+01  8.92545e+00  2.63385e+00
       H -2.72093e+01  6.39569e+00  3.63330e+00
       O  5.15506e+01  1.05156e+01  3.05811e+01
       H  5.00674e+01  1.14736e+01  3.02345e+01
       H  5.10045e+01  8.86007e+00  3.12220e+01
       O  9.10751e+01 -2.31603e+01 -2.21064e+01
       H  9.24080e+01 -2.21093e+01 -2.14970e+01
       H  9.15824e+01 -2.48040e+01 -2.15400e+01
       O  2.43747e+01 -8.05702e+01  5.56071e+00
       H  2.35527e+01 -8.02894e+01  7.22014e+00
       H  2.31941e+01 -8.14474e+01  4.67135e+00
       O -1.10505e+02  2.85948e+01  9.70476e+01
       H -1.08940e+02  2.78102e+01  9.75566e+01
       H -1.11743e+02  2.72911e+01  9.67821e+01
       O  5.98783e+00 -5.24859e+01  6.22529e+00
       H  4.41714e+00 -5.19818e+01  7.00086e+00
       H  6.61496e+00 -5.40249e+01  6.87536e+00
       O -6.67239e+01  5.77645e+01  2.55090e+01
       H -6.73251e+01  5.61659e+01  2.49558e+01
       H -6.66126e+01  5.80274e+01  2.73889e+01
       O -3.70682e+00  5.38206e+01 -1.99031e+00
       H -4.26663e+00  5.40875e+01 -2.65700e-01
       H -4.61631e+00  5.23414e+01 -2.49154e+00
       O -9.62452e+01 -2.84689e+01 -3.47030e+01
       H -9.61786e+01 -3.01395e+01 -3.57088e+01
       H -9.80421e+01 -2.81937e+01 -3.45236e+01
       O  6.58206e+01 -2.41283e+01 -3.76641e+01
       H  6.47582e+01 -2.29088e+01 -3.84355e+01
       H  6.52091e+01 -2.42756e+01 -3.59434e+01
       O  3.44857e+01  9.38801e+00  5.57894e+01
       H  3.59353e+01  8.88494e+00  5.49306e+01
       H  3.36662e+01  1.04032e+01  5.46257e+01
       O -4.55777e+00  5.86840e+01  8.50063e+01
       H -3.33437e+00  5.76275e+01  8.59314e+01
       H -6.07154e+00  5.78273e+01  8.56156e+01
       O -5.36959e+01  1.20726e+02  1.16263e+02
       H -5.27698e+01  1.20086e+02  1.17593e+02
       H -5.31803e+01  1.19788e+02  1.14817e+02
       O  1.23007e+01  1.87791e+01  7.22031e+01
       H  1.37700e+01  1.85365e+01  7.32078e+01
       H  1.28524e+01  1.98971e+01  7.07634e+01
       O  4.88996e+01  1.86428e+01 -2.68376e+00
       H  5.00271e+01  1.77644e+01 -1.56110e+00
       H  4.78024e+01  1.74013e+01 -3.53582e+00
       O  1.81984e+02 -4.75213e+01  1.50284e+01
       H  1.82896e+02 -4.59604e+01  1.53325e+01
       H  1.80421e+02 -4.73151e+01  1.57664e+01
       O -3.29134e+01  3.45208e+00 -3.94792e+01
       H -3.46769e+01  2.85999e+00 -3.96863e+01
       H -3.32234e+01  5.10238e+00 -3.90361e+01
       O  2.32856e+01 -1.93610e+01 -1.99375e+01
       H  2.45948e+01 -1.95722e+01 -2.10747e+01
       H  2.42448e+01 -1.86836e+01 -1.83999e+01
       O  9.10421e+00 -8.32308e+00  7.96089e+01
       H  8.88642e+00 -8.87888e+00  7.79728e+01
       H  1.07368e+01 -7.59735e+00  7.93894e+01
       O  3.68132e+01 -5.99148e+01 -1.18193e+01
       H  3.60713e+01 -6.04835e+01 -1.32984e+01
       H  3.54107e+01 -5.94534e+01 -1.07503e+01
       O -4.23940e+01 -6.61185e+01 -8.22983e+01
       H -4.07037e+01 -6.59222e+01 -8.27283e+01
       H -4.31647e+01 -6.54448e+01 -8.37127e+01
       O -1.87046e+00  2.75184e+01  1.14280e+01
       H -7.37714e-01  2.65204e+01  1.24716e+01
       H -2.51784e+00  2.65908e+01  1.00302e+01
       O -3.85770e+01  6.11277e+01  2.69529e+01
       H -3.98125e+01  6.03501e+01  2.59021e+01
       H -3.72299e+01  6.14393e+01  2.57811e+01
       O -8.19441e+01  6.94487e+01 -3.35206e+00
       H -8.08800e+01  7.08077e+01 -3.01924e+00
       H -8.08700e+01  6.81710e+01 -4.08149e+00
       O -6.18663e+01  1.66768e+01  1.69113e+01
       H -6.29069e+01  1.79746e+01  1.76668e+01
       H -6.14695e+01  1.55121e+01  1.83177e+01
       O  6.31582e+00  1.95741e+01  1.91521e+01
       H  6.93502e+00  2.01104e+01  2.08547e+01
       H  4.52584e+00  1.97937e+01  1.90524e+01
       O  2.49873e+01  2.32493e+01  1.65717e+02
       H  2.34867e+01  2.38305e+01  1.65017e+02
       H  2.51263e+01  2.16420e+01  1.64810e+02
       O -2.04952e+01  1.66432e+01  2.51501e+01
       H -2.11128e+01  1.62116e+01  2.67982e+01
       H -1.89138e+01  1.73349e+01  2.54604e+01
       O -5.60500e+01 -1.54655e+01 -8.88949e+01
       H -5.51839e+01 -1.40563e+01 -8.80183e+01
       H -5.48463e+01 -1.64276e+01 -8.96522e+01
       O  2.52809e+01  3.58997e+01  1.17064e+02
       H  2.47644e+01  3.42888e+01  1.17690e+02
       H  2.62769e+01  3.63321e+01  1.18473e+02
       O -1.94682e+01 -4.28250e+01  4.39892e+01
       H -1.80351e+01 -4.38384e+01  4.47121e+01
       H -1.90090e+01 -4.18503e+01  4.25479e+01
       O  1.36398e+01  2.62290e+01  1.21187e+02
       H  1.51581e+01  2.51032e+01  1.20882e+02
       H  1.38916e+01  2.71540e+01  1.22723e+02
       O  1.16273e+02  4.60101e+01 -5.74556e+00
       H  1.17799e+02  4.54742e+01 -6.58826e+00
       H  1.15144e+02  4.45302e+01 -6.02498e+00
       O  7.57595e+01 -2.27312e+01  8.00748e+01
       H  7.75579e+01 -2.33203e+01  8.01190e+01
       H  7.49971e+01 -2.35006e+01  8.15317e+01
       O -1.66098e+00 -4.02456e+00  5.05172e+01
       H -8.55886e-01 -5.06247e+00  5.16450e+01
       H -4.77231e-01 -3.67876e+00  4.90949e+01
       O  1.68286e+02  2.39864e+01 -1.10689e+01
       H  1.68835e+02  2.41419e+01 -9.19867e+00
       H  1.67247e+02  2.24754e+01 -1.09555e+01
       O -3.98428e+01  8.54858e+01 -3.48996e+01
       H -3.94446e+01  8.61529e+01 -3.64503e+01
       H -3.91171e+01  8.64855e+01 -3.36474e+01
       O -4.76586e+01 -3.91333e+01  1.63812e+01
       H -4.58285e+01 -3.85981e+01  1.65159e+01
       H -4.78113e+01 -4.05071e+01  1.75097e+01
