192
# CELL(abcABC):   23.36303    23.36303    23.36303    90.00000    90.00000    90.00000  Step:       60000  Bead:       0 x_centroid{atomic_unit}  cell{atomic_unit}
       O -2.32202e+00  8.25747e+01 -1.27652e+01
       H -3.10581e+00  8.14348e+01 -1.16584e+01
       H -2.49125e+00  8.17450e+01 -1.43476e+01
       O  6.24234e+01  8.54078e+01 -1.99324e+01
       H  6.06638e+01  8.57598e+01 -1.99223e+01
       H  6.32439e+01  8.66650e+01 -1.87990e+01
       O  1.92755e+01  1.73489e+01 -4.69251e+01
       H  2.09902e+01  1.71109e+01 -4.64301e+01
       H  1.83285e+01  1.65888e+01 -4.55348e+01
       O  5.93896e+01 -2.92550e+00 -8.25520e+01
       H  5.94713e+01 -4.58659e+00 -8.33058e+01
       H  5.94884e+01 -1.85401e+00 -8.40048e+01
       O  4.06870e+01  1.36231e+02  7.61303e+01
       H  4.12243e+01  1.36031e+02  7.78495e+01
       H  3.91602e+01  1.37182e+02  7.63127e+01
       O -2.31141e+01  2.83354e+01 -7.86301e+00
       H -2.21750e+01  2.74464e+01 -9.09222e+00
       H -2.20114e+01  2.91306e+01 -6.70551e+00
       O  6.62882e+00 -1.66833e+01  5.21614e+00
       H  5.34631e+00 -1.79495e+01  5.03020e+00
       H  5.70202e+00 -1.51754e+01  5.31965e+00
       O -2.01163e+01  1.03369e+01  3.60657e+01
       H -1.93459e+01  9.77021e+00  3.75457e+01
       H -2.18372e+01  1.08460e+01  3.66394e+01
       O  7.91775e+01 -4.31118e+01  8.14659e+01
       H  7.92007e+01 -4.13459e+01  8.18701e+01
       H  8.01628e+01 -4.36848e+01  8.28837e+01
       O -2.43907e+01 -1.30228e+02 -6.47761e+01
       H -2.42659e+01 -1.32032e+02 -6.50331e+01
       H -2.63503e+01 -1.30000e+02 -6.48212e+01
       O -1.04023e+02  4.95766e+01  2.51899e+01
       H -1.05430e+02  4.83810e+01  2.49513e+01
       H -1.04052e+02  5.02835e+01  2.68873e+01
       O -9.64768e+01  5.55954e+01  6.17793e+01
       H -9.55884e+01  5.40615e+01  6.18167e+01
       H -9.63106e+01  5.61423e+01  6.35255e+01
       O -8.53574e+00 -3.98659e+01 -5.54672e+01
       H -9.43211e+00 -3.88663e+01 -5.66484e+01
       H -6.78196e+00 -3.91722e+01 -5.54253e+01
       O  9.71658e+01 -6.19643e+01  1.81791e+01
       H  9.82286e+01 -6.28728e+01  1.93545e+01
       H  9.68097e+01 -6.04387e+01  1.90991e+01
       O -2.24011e+01  4.90472e+00  3.22817e+01
       H -2.13747e+01  4.38904e+00  3.36791e+01
       H -2.23173e+01  6.61482e+00  3.23177e+01
       O -4.37289e+01 -3.27194e+01 -5.02174e+00
       H -4.27799e+01 -3.24802e+01 -6.47374e+00
       H -4.52097e+01 -3.17798e+01 -5.48187e+00
       O  3.11789e+01 -3.45988e+01 -4.11719e+01
       H  3.01178e+01 -3.52689e+01 -3.98103e+01
       H  3.06864e+01 -3.54261e+01 -4.27741e+01
       O -2.54275e+01  9.24673e+01 -6.62373e+01
       H -2.41637e+01  9.20531e+01 -6.50502e+01
       H -2.67366e+01  9.11132e+01 -6.59924e+01
       O  7.90963e+01  1.08041e+01  1.72960e+01
       H  8.04149e+01  1.18037e+01  1.81071e+01
       H  7.81519e+01  1.00981e+01  1.85369e+01
       O  1.34163e+02  6.56794e+01 -2.97791e+01
       H  1.33807e+02  6.70564e+01 -3.10085e+01
       H  1.33716e+02  6.64024e+01 -2.82262e+01
       O -2.98347e+01  4.56581e+01 -9.90508e+00
       H -3.13134e+01  4.47371e+01 -1.06575e+01
       H -2.87350e+01  4.60665e+01 -1.13606e+01
       O  2.77826e+01  1.83484e+01  6.70940e+01
       H  2.72411e+01  1.67587e+01  6.62390e+01
       H  2.91563e+01  1.88651e+01  6.58502e+01
       O  2.41671e+01  8.61292e+01 -4.63767e+01
       H  2.57503e+01  8.69540e+01 -4.67240e+01
       H  2.43266e+01  8.43029e+01 -4.65284e+01
       O  1.21185e+02 -2.49362e+01  5.00419e+01
       H  1.20825e+02 -2.57584e+01  5.16074e+01
       H  1.20591e+02 -2.32451e+01  5.03755e+01
       O -4.86935e+01  2.85413e+01  2.81250e+00
       H -5.00668e+01  2.75864e+01  3.73816e+00
       H -4.87324e+01  2.79145e+01  1.09728e+00
       O  3.13998e+01 -2.69910e+01  3.06174e+01
       H  3.10620e+01 -2.68903e+01  3.23568e+01
       H  3.11592e+01 -2.53381e+01  2.99704e+01
       O -4.57425e+01 -1.21052e+01  4.10203e-01
       H -4.70269e+01 -1.23607e+01 -9.22588e-01
       H -4.66361e+01 -1.24006e+01  2.01373e+00
       O  5.16567e+01  1.76817e+00  1.72793e+01
       H  5.09662e+01  1.63991e+00  1.89351e+01
       H  5.31927e+01  6.40954e-01  1.72693e+01
       O  5.86816e+01 -9.25551e+00 -2.64538e+01
       H  5.73560e+01 -8.46007e+00 -2.53916e+01
       H  5.94785e+01 -7.80591e+00 -2.72031e+01
       O -3.14698e+01 -8.26316e+01 -5.31275e+00
       H -3.20251e+01 -8.14548e+01 -4.07231e+00
       H -3.30314e+01 -8.36118e+01 -5.65962e+00
       O -8.45005e+01  4.53365e+01  6.33983e+01
       H -8.38310e+01  4.38431e+01  6.27571e+01
       H -8.31926e+01  4.65771e+01  6.29509e+01
       O  9.52941e+00 -6.10464e+01  1.24454e+01
       H  8.97802e+00 -5.95545e+01  1.16296e+01
       H  9.20913e+00 -6.06197e+01  1.42506e+01
       O -6.58984e+01  7.27752e+01  1.21625e+01
       H -6.42192e+01  7.30583e+01  1.15195e+01
       H -6.55421e+01  7.25301e+01  1.40143e+01
       O  1.22193e+01  4.91296e+01 -8.13080e+00
       H  1.36281e+01  4.82506e+01 -8.93110e+00
       H  1.31958e+01  5.06925e+01 -7.95615e+00
       O -6.71027e+01 -4.35831e+01 -1.88576e+01
       H -6.83839e+01 -4.30729e+01 -1.99859e+01
       H -6.78934e+01 -4.32587e+01 -1.72291e+01
       O  5.28152e+01 -2.60453e+01 -3.49061e+01
       H  5.40711e+01 -2.53519e+01 -3.37686e+01
       H  5.16998e+01 -2.46039e+01 -3.49593e+01
       O  4.98180e+01  1.66391e+01  5.97815e+01
       H  5.06143e+01  1.82963e+01  5.96337e+01
       H  4.80418e+01  1.67532e+01  5.93121e+01
       O -2.94947e+00  3.37412e+01  9.04664e+01
       H -3.89829e+00  3.52233e+01  9.00154e+01
       H -4.31774e+00  3.30124e+01  9.14037e+01
       O -6.40404e+01  1.03974e+02  1.17323e+02
       H -6.58052e+01  1.03710e+02  1.17573e+02
       H -6.36719e+01  1.05790e+02  1.16960e+02
       O  3.91444e+01 -2.63088e+00  4.47052e+01
       H  3.94204e+01 -9.87459e-01  4.51456e+01
       H  4.02182e+01 -3.79592e+00  4.55935e+01
       O  6.35857e+01  7.98103e+00 -2.32558e+01
       H  6.17759e+01  7.83979e+00 -2.36496e+01
       H  6.43740e+01  6.33245e+00 -2.33060e+01
       O  1.73458e+02 -2.94766e+01  1.45826e+01
       H  1.72482e+02 -3.06896e+01  1.35786e+01
       H  1.74968e+02 -3.03887e+01  1.43929e+01
       O -1.68153e+01 -1.78870e+01 -1.28130e+00
       H -1.68708e+01 -1.62569e+01 -5.42252e-01
       H -1.67151e+01 -1.88900e+01  2.65538e-01
       O  9.11495e+00 -2.43998e+01 -4.50198e+01
       H  9.54370e+00 -2.55226e+01 -4.63470e+01
       H  7.35982e+00 -2.46888e+01 -4.47136e+01
       O  3.36164e+01 -3.03827e+01  5.00506e+01
       H  3.31431e+01 -2.88931e+01  5.08766e+01
       H  3.32109e+01 -3.16584e+01  5.12993e+01
       O  6.26540e+01 -5.57568e+01 -8.88109e+00
       H  6.23573e+01 -5.72776e+01 -7.80132e+00
       H  6.33965e+01 -5.46570e+01 -7.77351e+00
       O -3.47492e+01 -4.03814e+01 -7.19150e+01
       H -3.65061e+01 -4.07441e+01 -7.20071e+01
       H -3.41061e+01 -4.14747e+01 -7.05794e+01
       O -2.10965e+01  2.32711e+01  4.52281e+01
       H -2.15233e+01  2.18475e+01  4.41796e+01
       H -2.08379e+01  2.23967e+01  4.68499e+01
       O -5.90159e+01  7.49058e+01  5.34337e+01
       H -6.04933e+01  7.58559e+01  5.28300e+01
       H -5.96447e+01  7.43148e+01  5.50009e+01
       O -6.66327e+01  8.02307e+01  7.62277e+00
       H -6.70074e+01  8.02908e+01  9.46142e+00
       H -6.83241e+01  8.06380e+01  6.95579e+00
       O -4.60022e+01  2.14048e+01 -1.45660e+01
       H -4.71799e+01  2.24693e+01 -1.36005e+01
       H -4.64062e+01  1.96051e+01 -1.42933e+01
       O  7.54529e+00 -9.60282e+00  3.47544e+01
       H  6.03569e+00 -1.02293e+01  3.54638e+01
       H  7.04789e+00 -8.50609e+00  3.35075e+01
       O  1.71633e+01 -1.30194e+01  1.91440e+02
       H  1.65197e+01 -1.37383e+01  1.89928e+02
       H  1.70131e+01 -1.12075e+01  1.91105e+02
       O -2.87920e+01 -2.13365e+01  5.24858e+01
       H -3.04026e+01 -2.20282e+01  5.23250e+01
       H -2.75436e+01 -2.23218e+01  5.15698e+01
       O -7.09460e+01  1.73990e+01 -7.55905e+01
       H -7.11521e+01  1.71245e+01 -7.37331e+01
       H -7.26380e+01  1.77766e+01 -7.62144e+01
       O -3.41319e+01  5.79817e+01  1.24617e+02
       H -3.29593e+01  5.75837e+01  1.23370e+02
       H -3.58047e+01  5.79263e+01  1.23908e+02
       O  1.26975e+01 -4.70401e+01  6.66666e+00
       H  1.20367e+01 -4.53133e+01  7.01881e+00
       H  1.14637e+01 -4.76798e+01  5.49623e+00
       O -6.45628e+00  4.93274e+01  6.80168e+01
       H -7.51025e+00  5.01102e+01  6.69112e+01
       H -4.62362e+00  4.96390e+01  6.73974e+01
       O  8.39065e+01  3.90943e+01 -1.36617e+01
       H  8.45612e+01  3.86831e+01 -1.20333e+01
       H  8.35521e+01  3.74541e+01 -1.43878e+01
       O  6.65204e+01 -5.21716e+01  8.05420e+01
       H  6.61535e+01 -5.40583e+01  8.05696e+01
       H  6.67478e+01 -5.16899e+01  8.22458e+01
       O -1.27626e+01  4.29359e+01  4.45916e+01
       H -1.30593e+01  4.39786e+01  4.31747e+01
       H -1.07886e+01  4.29870e+01  4.49215e+01
       O  1.60664e+02  1.38171e+00 -1.28060e+01
       H  1.59686e+02  1.87579e+00 -1.43924e+01
       H  1.61838e+02  2.79573e+00 -1.26015e+01
       O -8.59868e+01  8.53327e+01 -4.72102e+01
       H -8.63178e+01  8.68193e+01 -4.81116e+01
       H -8.49115e+01  8.57641e+01 -4.57172e+01
       O -7.17181e+01 -1.94067e+01 -3.10159e+00
       H -7.08636e+01 -2.09416e+01 -2.75306e+00
       H -7.15622e+01 -1.91166e+01 -4.96133e+00
