1
# CELL(abcABC):   10.00000    10.00000    10.00000    90.00000    90.00000    90.00000  Step:           0  Bead:       0 positions{atomic_unit}  cell{atomic_unit}
       H  0.00000e+00  0.00000e+00  0.00000e+00
1
# CELL(abcABC):   10.00000    10.00000     8.82928    90.00000    90.00000    90.00000  Step:           1  Bead:       0 positions{atomic_unit}  cell{atomic_unit}
       H  5.94963e-04  1.02783e-02  1.34630e-02
1
# CELL(abcABC):   10.00000    10.00000     6.26464    90.00000    90.00000    90.00000  Step:           2  Bead:       0 positions{atomic_unit}  cell{atomic_unit}
       H  6.27495e-04  2.12846e-02  2.42680e-02
1
# CELL(abcABC):   10.00000    10.00000     3.81183    90.00000    90.00000    90.00000  Step:           3  Bead:       0 positions{atomic_unit}  cell{atomic_unit}
       H  1.57980e-03  3.29877e-02  3.69918e-02
1
# CELL(abcABC):   10.00000    10.00000     2.13115    90.00000    90.00000    90.00000  Step:           4  Bead:       0 positions{atomic_unit}  cell{atomic_unit}
       H  1.80909e-03  4.29364e-02  5.71893e-02
1
# CELL(abcABC):   10.00000    10.00000     1.14845    90.00000    90.00000    90.00000  Step:           5  Bead:       0 positions{atomic_unit}  cell{atomic_unit}
       H  2.76468e-03  5.39549e-02  9.55189e-02
1
# CELL(abcABC):   10.00000    10.00000     0.62557    90.00000    90.00000    90.00000  Step:           6  Bead:       0 positions{atomic_unit}  cell{atomic_unit}
       H  2.60339e-03  6.52190e-02  1.69981e-01
1
# CELL(abcABC):   10.00000    10.00000     0.37498    90.00000    90.00000    90.00000  Step:           7  Bead:       0 positions{atomic_unit}  cell{atomic_unit}
       H  2.35482e-03  7.61410e-02  3.13256e-01
1
# CELL(abcABC):   10.00000    10.00000     0.29499    90.00000    90.00000    90.00000  Step:           8  Bead:       0 positions{atomic_unit}  cell{atomic_unit}
       H  2.10738e-03  8.69541e-02  5.82790e-01
1
# CELL(abcABC):   10.00000    10.00000     0.35834    90.00000    90.00000    90.00000  Step:           9  Bead:       0 positions{atomic_unit}  cell{atomic_unit}
       H  1.06792e-03  9.70107e-02  1.13045e+00
1
# CELL(abcABC):   10.00000    10.00000     0.57748    90.00000    90.00000    90.00000  Step:          10  Bead:       0 positions{atomic_unit}  cell{atomic_unit}
       H -3.09396e-04  1.06189e-01  2.17549e+00
1
# CELL(abcABC):   10.00000    10.00000     1.02161    90.00000    90.00000    90.00000  Step:          11  Bead:       0 positions{atomic_unit}  cell{atomic_unit}
       H -3.26281e-03  1.13697e-01  4.06824e+00
1
# CELL(abcABC):   10.00000    10.00000     1.81295    90.00000    90.00000    90.00000  Step:          12  Bead:       0 positions{atomic_unit}  cell{atomic_unit}
       H -6.76218e-03  1.22527e-01  7.34161e+00
1
# CELL(abcABC):   10.00000    10.00000     3.08282    90.00000    90.00000    90.00000  Step:          13  Bead:       0 positions{atomic_unit}  cell{atomic_unit}
       H -1.10900e-02  1.30795e-01  1.25520e+01
1
# CELL(abcABC):   10.00000    10.00000     4.84347    90.00000    90.00000    90.00000  Step:          14  Bead:       0 positions{atomic_unit}  cell{atomic_unit}
       H -1.39912e-02  1.38014e-01  1.97578e+01
1
# CELL(abcABC):   10.00000    10.00000     6.71334    90.00000    90.00000    90.00000  Step:          15  Bead:       0 positions{atomic_unit}  cell{atomic_unit}
       H -1.68865e-02  1.45149e-01  2.74093e+01
1
# CELL(abcABC):   10.00000    10.00000     7.86556    90.00000    90.00000    90.00000  Step:          16  Bead:       0 positions{atomic_unit}  cell{atomic_unit}
       H -1.93218e-02  1.50788e-01  3.21301e+01
1
# CELL(abcABC):   10.00000    10.00000     7.55776    90.00000    90.00000    90.00000  Step:          17  Bead:       0 positions{atomic_unit}  cell{atomic_unit}
       H -2.10937e-02  1.56597e-01  3.08850e+01
1
# CELL(abcABC):   10.00000    10.00000     6.02420    90.00000    90.00000    90.00000  Step:          18  Bead:       0 positions{atomic_unit}  cell{atomic_unit}
       H -2.21443e-02  1.62225e-01  2.46315e+01
1
# CELL(abcABC):   10.00000    10.00000     4.15097    90.00000    90.00000    90.00000  Step:          19  Bead:       0 positions{atomic_unit}  cell{atomic_unit}
       H -2.46840e-02  1.68477e-01  1.69889e+01
1
# CELL(abcABC):   10.00000    10.00000     2.59275    90.00000    90.00000    90.00000  Step:          20  Bead:       0 positions{atomic_unit}  cell{atomic_unit}
       H -2.73118e-02  1.74044e-01  1.06355e+01
1
# CELL(abcABC):   10.00000    10.00000     1.52946    90.00000    90.00000    90.00000  Step:          21  Bead:       0 positions{atomic_unit}  cell{atomic_unit}
       H -2.93349e-02  1.80429e-01  6.31212e+00
1
# CELL(abcABC):   10.00000    10.00000     0.88199    90.00000    90.00000    90.00000  Step:          22  Bead:       0 positions{atomic_unit}  cell{atomic_unit}
       H -3.04613e-02  1.87875e-01  3.70441e+00
1
# CELL(abcABC):   10.00000    10.00000     0.51620    90.00000    90.00000    90.00000  Step:          23  Bead:       0 positions{atomic_unit}  cell{atomic_unit}
       H -3.15825e-02  1.94160e-01  2.27820e+00
1
# CELL(abcABC):   10.00000    10.00000     0.32491    90.00000    90.00000    90.00000  Step:          24  Bead:       0 positions{atomic_unit}  cell{atomic_unit}
       H -3.36309e-02  2.01166e-01  1.61756e+00
1
# CELL(abcABC):   10.00000    10.00000     0.24778    90.00000    90.00000    90.00000  Step:          25  Bead:       0 positions{atomic_unit}  cell{atomic_unit}
       H -3.60863e-02  2.08063e-01  1.51621e+00
1
# CELL(abcABC):   10.00000    10.00000     0.26218    90.00000    90.00000    90.00000  Step:          26  Bead:       0 positions{atomic_unit}  cell{atomic_unit}
       H -3.91595e-02  2.13575e-01  1.96695e+00
1
# CELL(abcABC):   10.00000    10.00000     0.36801    90.00000    90.00000    90.00000  Step:          27  Bead:       0 positions{atomic_unit}  cell{atomic_unit}
       H -4.34765e-02  2.17768e-01  3.10670e+00
1
# CELL(abcABC):   10.00000    10.00000     0.59073    90.00000    90.00000    90.00000  Step:          28  Bead:       0 positions{atomic_unit}  cell{atomic_unit}
       H -4.91741e-02  2.21201e-01  5.23654e+00
1
# CELL(abcABC):   10.00000    10.00000     0.98104    90.00000    90.00000    90.00000  Step:          29  Bead:       0 positions{atomic_unit}  cell{atomic_unit}
       H -5.49932e-02  2.24874e-01  8.85058e+00
1
# CELL(abcABC):   10.00000    10.00000     1.61458    90.00000    90.00000    90.00000  Step:          30  Bead:       0 positions{atomic_unit}  cell{atomic_unit}
       H -6.03261e-02  2.28745e-01  1.46578e+01
1
# CELL(abcABC):   10.00000    10.00000     2.55191    90.00000    90.00000    90.00000  Step:          31  Bead:       0 positions{atomic_unit}  cell{atomic_unit}
       H -6.66204e-02  2.33075e-01  2.32222e+01
1
# CELL(abcABC):   10.00000    10.00000     3.78483    90.00000    90.00000    90.00000  Step:          32  Bead:       0 positions{atomic_unit}  cell{atomic_unit}
       H -7.30619e-02  2.36799e-01  3.44735e+01
1
# CELL(abcABC):   10.00000    10.00000     5.07622    90.00000    90.00000    90.00000  Step:          33  Bead:       0 positions{atomic_unit}  cell{atomic_unit}
       H -7.79977e-02  2.39524e-01  4.62564e+01
1
# CELL(abcABC):   10.00000    10.00000     5.99968    90.00000    90.00000    90.00000  Step:          34  Bead:       0 positions{atomic_unit}  cell{atomic_unit}
       H -8.24384e-02  2.42606e-01  5.46879e+01
1
# CELL(abcABC):   10.00000    10.00000     6.09081    90.00000    90.00000    90.00000  Step:          35  Bead:       0 positions{atomic_unit}  cell{atomic_unit}
       H -8.64466e-02  2.45970e-01  5.55333e+01
1
# CELL(abcABC):   10.00000    10.00000     5.33218    90.00000    90.00000    90.00000  Step:          36  Bead:       0 positions{atomic_unit}  cell{atomic_unit}
       H -9.05310e-02  2.48125e-01  4.86307e+01
1
# CELL(abcABC):   10.00000    10.00000     4.10077    90.00000    90.00000    90.00000  Step:          37  Bead:       0 positions{atomic_unit}  cell{atomic_unit}
       H -9.43030e-02  2.49478e-01  3.74171e+01
1
# CELL(abcABC):   10.00000    10.00000     2.85438    90.00000    90.00000    90.00000  Step:          38  Bead:       0 positions{atomic_unit}  cell{atomic_unit}
       H -9.80871e-02  2.51800e-01  2.60658e+01
1
# CELL(abcABC):   10.00000    10.00000     1.86266    90.00000    90.00000    90.00000  Step:          39  Bead:       0 positions{atomic_unit}  cell{atomic_unit}
       H -1.02281e-01  2.53462e-01  1.70402e+01
1
# CELL(abcABC):   10.00000    10.00000     1.17377    90.00000    90.00000    90.00000  Step:          40  Bead:       0 positions{atomic_unit}  cell{atomic_unit}
       H -1.07095e-01  2.55464e-01  1.07854e+01
1
# CELL(abcABC):   10.00000    10.00000     0.73147    90.00000    90.00000    90.00000  Step:          41  Bead:       0 positions{atomic_unit}  cell{atomic_unit}
       H -1.11779e-01  2.58021e-01  6.79499e+00
1
# CELL(abcABC):   10.00000    10.00000     0.46561    90.00000    90.00000    90.00000  Step:          42  Bead:       0 positions{atomic_unit}  cell{atomic_unit}
       H -1.15056e-01  2.60191e-01  4.44150e+00
1
# CELL(abcABC):   10.00000    10.00000     0.31798    90.00000    90.00000    90.00000  Step:          43  Bead:       0 positions{atomic_unit}  cell{atomic_unit}
       H -1.19669e-01  2.62982e-01  3.21320e+00
1
# CELL(abcABC):   10.00000    10.00000     0.25431    90.00000    90.00000    90.00000  Step:          44  Bead:       0 positions{atomic_unit}  cell{atomic_unit}
       H -1.26145e-01  2.66041e-01  2.82612e+00
1
# CELL(abcABC):   10.00000    10.00000     0.25943    90.00000    90.00000    90.00000  Step:          45  Bead:       0 positions{atomic_unit}  cell{atomic_unit}
       H -1.32375e-01  2.67131e-01  3.19686e+00
1
# CELL(abcABC):   10.00000    10.00000     0.33130    90.00000    90.00000    90.00000  Step:          46  Bead:       0 positions{atomic_unit}  cell{atomic_unit}
       H -1.38208e-01  2.69505e-01  4.38991e+00
1
# CELL(abcABC):   10.00000    10.00000     0.48051    90.00000    90.00000    90.00000  Step:          47  Bead:       0 positions{atomic_unit}  cell{atomic_unit}
       H -1.43998e-01  2.72110e-01  6.60731e+00
1
# CELL(abcABC):   10.00000    10.00000     0.73045    90.00000    90.00000    90.00000  Step:          48  Bead:       0 positions{atomic_unit}  cell{atomic_unit}
       H -1.48587e-01  2.74397e-01  1.02093e+01
1
# CELL(abcABC):   10.00000    10.00000     1.11428    90.00000    90.00000    90.00000  Step:          49  Bead:       0 positions{atomic_unit}  cell{atomic_unit}
       H -1.52395e-01  2.76796e-01  1.56815e+01
1
# CELL(abcABC):   10.00000    10.00000     1.66744    90.00000    90.00000    90.00000  Step:          50  Bead:       0 positions{atomic_unit}  cell{atomic_unit}
       H -1.56646e-01  2.79371e-01  2.35358e+01
1
# CELL(abcABC):   10.00000    10.00000     2.39520    90.00000    90.00000    90.00000  Step:          51  Bead:       0 positions{atomic_unit}  cell{atomic_unit}
       H -1.62096e-01  2.81941e-01  3.38538e+01
1
# CELL(abcABC):   10.00000    10.00000     3.23855    90.00000    90.00000    90.00000  Step:          52  Bead:       0 positions{atomic_unit}  cell{atomic_unit}
       H -1.67484e-01  2.85494e-01  4.58059e+01
1
# CELL(abcABC):   10.00000    10.00000     4.03241    90.00000    90.00000    90.00000  Step:          53  Bead:       0 positions{atomic_unit}  cell{atomic_unit}
       H -1.73201e-01  2.91199e-01  5.70577e+01
1
# CELL(abcABC):   10.00000    10.00000     4.54266    90.00000    90.00000    90.00000  Step:          54  Bead:       0 positions{atomic_unit}  cell{atomic_unit}
       H -1.80070e-01  2.97184e-01  6.42967e+01
1
# CELL(abcABC):   10.00000    10.00000     4.55901    90.00000    90.00000    90.00000  Step:          55  Bead:       0 positions{atomic_unit}  cell{atomic_unit}
       H -1.86319e-01  3.04433e-01  6.45455e+01
1
# CELL(abcABC):   10.00000    10.00000     4.08696    90.00000    90.00000    90.00000  Step:          56  Bead:       0 positions{atomic_unit}  cell{atomic_unit}
       H -1.94232e-01  3.11712e-01  5.78793e+01
1
# CELL(abcABC):   10.00000    10.00000     3.30822    90.00000    90.00000    90.00000  Step:          57  Bead:       0 positions{atomic_unit}  cell{atomic_unit}
       H -2.02680e-01  3.18823e-01  4.68703e+01
1
# CELL(abcABC):   10.00000    10.00000     2.47820    90.00000    90.00000    90.00000  Step:          58  Bead:       0 positions{atomic_unit}  cell{atomic_unit}
       H -2.11021e-01  3.26214e-01  3.51363e+01
1
# CELL(abcABC):   10.00000    10.00000     1.75775    90.00000    90.00000    90.00000  Step:          59  Bead:       0 positions{atomic_unit}  cell{atomic_unit}
       H -2.19132e-01  3.34259e-01  2.49553e+01
1
# CELL(abcABC):   10.00000    10.00000     1.20521    90.00000    90.00000    90.00000  Step:          60  Bead:       0 positions{atomic_unit}  cell{atomic_unit}
       H -2.28066e-01  3.41534e-01  1.71579e+01
1
# CELL(abcABC):   10.00000    10.00000     0.81574    90.00000    90.00000    90.00000  Step:          61  Bead:       0 positions{atomic_unit}  cell{atomic_unit}
       H -2.36719e-01  3.50826e-01  1.16815e+01
1
# CELL(abcABC):   10.00000    10.00000     0.55515    90.00000    90.00000    90.00000  Step:          62  Bead:       0 positions{atomic_unit}  cell{atomic_unit}
       H -2.46778e-01  3.61897e-01  8.04960e+00
1
# CELL(abcABC):   10.00000    10.00000     0.39320    90.00000    90.00000    90.00000  Step:          63  Bead:       0 positions{atomic_unit}  cell{atomic_unit}
       H -2.58545e-01  3.71136e-01  5.84467e+00
1
# CELL(abcABC):   10.00000    10.00000     0.30523    90.00000    90.00000    90.00000  Step:          64  Bead:       0 positions{atomic_unit}  cell{atomic_unit}
       H -2.70393e-01  3.79714e-01  4.73474e+00
1
# CELL(abcABC):   10.00000    10.00000     0.27554    90.00000    90.00000    90.00000  Step:          65  Bead:       0 positions{atomic_unit}  cell{atomic_unit}
       H -2.82518e-01  3.88398e-01  4.52450e+00
1
# CELL(abcABC):   10.00000    10.00000     0.29800    90.00000    90.00000    90.00000  Step:          66  Bead:       0 positions{atomic_unit}  cell{atomic_unit}
       H -2.93509e-01  3.98115e-01  5.16660e+00
1
# CELL(abcABC):   10.00000    10.00000     0.37358    90.00000    90.00000    90.00000  Step:          67  Bead:       0 positions{atomic_unit}  cell{atomic_unit}
       H -3.03201e-01  4.07934e-01  6.72928e+00
1
# CELL(abcABC):   10.00000    10.00000     0.51051    90.00000    90.00000    90.00000  Step:          68  Bead:       0 positions{atomic_unit}  cell{atomic_unit}
       H -3.13283e-01  4.17742e-01  9.39647e+00
1
# CELL(abcABC):   10.00000    10.00000     0.72274    90.00000    90.00000    90.00000  Step:          69  Bead:       0 positions{atomic_unit}  cell{atomic_unit}
       H -3.22635e-01  4.27787e-01  1.34473e+01
1
# CELL(abcABC):   10.00000    10.00000     1.02485    90.00000    90.00000    90.00000  Step:          70  Bead:       0 positions{atomic_unit}  cell{atomic_unit}
       H -3.31436e-01  4.36617e-01  1.91679e+01
1
# CELL(abcABC):   10.00000    10.00000     1.42813    90.00000    90.00000    90.00000  Step:          71  Bead:       0 positions{atomic_unit}  cell{atomic_unit}
       H -3.40887e-01  4.45336e-01  2.67802e+01
1
# CELL(abcABC):   10.00000    10.00000     1.92345    90.00000    90.00000    90.00000  Step:          72  Bead:       0 positions{atomic_unit}  cell{atomic_unit}
       H -3.48130e-01  4.53983e-01  3.61191e+01
1
# CELL(abcABC):   10.00000    10.00000     2.47311    90.00000    90.00000    90.00000  Step:          73  Bead:       0 positions{atomic_unit}  cell{atomic_unit}
       H -3.54758e-01  4.61538e-01  4.64790e+01
1
# CELL(abcABC):   10.00000    10.00000     2.99121    90.00000    90.00000    90.00000  Step:          74  Bead:       0 positions{atomic_unit}  cell{atomic_unit}
       H -3.60634e-01  4.69199e-01  5.62456e+01
1
# CELL(abcABC):   10.00000    10.00000     3.35761    90.00000    90.00000    90.00000  Step:          75  Bead:       0 positions{atomic_unit}  cell{atomic_unit}
       H -3.64956e-01  4.76956e-01  6.31592e+01
1
# CELL(abcABC):   10.00000    10.00000     3.46832    90.00000    90.00000    90.00000  Step:          76  Bead:       0 positions{atomic_unit}  cell{atomic_unit}
       H -3.67732e-01  4.85358e-01  6.52632e+01
1
# CELL(abcABC):   10.00000    10.00000     3.28748    90.00000    90.00000    90.00000  Step:          77  Bead:       0 positions{atomic_unit}  cell{atomic_unit}
       H -3.71818e-01  4.93718e-01  6.18819e+01
1
# CELL(abcABC):   10.00000    10.00000     2.88000    90.00000    90.00000    90.00000  Step:          78  Bead:       0 positions{atomic_unit}  cell{atomic_unit}
       H -3.76248e-01  5.02207e-01  5.42339e+01
1
# CELL(abcABC):   10.00000    10.00000     2.35768    90.00000    90.00000    90.00000  Step:          79  Bead:       0 positions{atomic_unit}  cell{atomic_unit}
       H -3.80828e-01  5.09968e-01  4.44219e+01
1
# CELL(abcABC):   10.00000    10.00000     1.82983    90.00000    90.00000    90.00000  Step:          80  Bead:       0 positions{atomic_unit}  cell{atomic_unit}
       H -3.86953e-01  5.17425e-01  3.45064e+01
1
# CELL(abcABC):   10.00000    10.00000     1.36537    90.00000    90.00000    90.00000  Step:          81  Bead:       0 positions{atomic_unit}  cell{atomic_unit}
       H -3.95095e-01  5.23564e-01  2.57840e+01
1
# CELL(abcABC):   10.00000    10.00000     0.99294    90.00000    90.00000    90.00000  Step:          82  Bead:       0 positions{atomic_unit}  cell{atomic_unit}
       H -4.04153e-01  5.28657e-01  1.87995e+01
1
# CELL(abcABC):   10.00000    10.00000     0.71357    90.00000    90.00000    90.00000  Step:          83  Bead:       0 positions{atomic_unit}  cell{atomic_unit}
       H -4.13511e-01  5.34088e-01  1.35779e+01
1
# CELL(abcABC):   10.00000    10.00000     0.51791    90.00000    90.00000    90.00000  Step:          84  Bead:       0 positions{atomic_unit}  cell{atomic_unit}
       H -4.22563e-01  5.39860e-01  9.94824e+00
1
# CELL(abcABC):   10.00000    10.00000     0.38716    90.00000    90.00000    90.00000  Step:          85  Bead:       0 positions{atomic_unit}  cell{atomic_unit}
       H -4.30323e-01  5.45611e-01  7.56204e+00
1
# CELL(abcABC):   10.00000    10.00000     0.30767    90.00000    90.00000    90.00000  Step:          86  Bead:       0 positions{atomic_unit}  cell{atomic_unit}
       H -4.38072e-01  5.52178e-01  6.17468e+00
1
# CELL(abcABC):   10.00000    10.00000     0.26965    90.00000    90.00000    90.00000  Step:          87  Bead:       0 positions{atomic_unit}  cell{atomic_unit}
       H -4.45385e-01  5.57772e-01  5.61616e+00
1
# CELL(abcABC):   10.00000    10.00000     0.26869    90.00000    90.00000    90.00000  Step:          88  Bead:       0 positions{atomic_unit}  cell{atomic_unit}
       H -4.52956e-01  5.64355e-01  5.82716e+00
1
# CELL(abcABC):   10.00000    10.00000     0.30389    90.00000    90.00000    90.00000  Step:          89  Bead:       0 positions{atomic_unit}  cell{atomic_unit}
       H -4.58954e-01  5.72586e-01  6.81975e+00
1
# CELL(abcABC):   10.00000    10.00000     0.37777    90.00000    90.00000    90.00000  Step:          90  Bead:       0 positions{atomic_unit}  cell{atomic_unit}
       H -4.63530e-01  5.80571e-01  8.67932e+00
1
# CELL(abcABC):   10.00000    10.00000     0.49444    90.00000    90.00000    90.00000  Step:          91  Bead:       0 positions{atomic_unit}  cell{atomic_unit}
       H -4.65954e-01  5.89678e-01  1.15209e+01
1
# CELL(abcABC):   10.00000    10.00000     0.66168    90.00000    90.00000    90.00000  Step:          92  Bead:       0 positions{atomic_unit}  cell{atomic_unit}
       H -4.69081e-01  6.00286e-01  1.55393e+01
1
# CELL(abcABC):   10.00000    10.00000     0.88883    90.00000    90.00000    90.00000  Step:          93  Bead:       0 positions{atomic_unit}  cell{atomic_unit}
       H -4.73267e-01  6.11087e-01  2.09617e+01
1
# CELL(abcABC):   10.00000    10.00000     1.17546    90.00000    90.00000    90.00000  Step:          94  Bead:       0 positions{atomic_unit}  cell{atomic_unit}
       H -4.77186e-01  6.21414e-01  2.77853e+01
1
# CELL(abcABC):   10.00000    10.00000     1.51919    90.00000    90.00000    90.00000  Step:          95  Bead:       0 positions{atomic_unit}  cell{atomic_unit}
       H -4.79925e-01  6.31949e-01  3.59566e+01
1
# CELL(abcABC):   10.00000    10.00000     1.89289    90.00000    90.00000    90.00000  Step:          96  Bead:       0 positions{atomic_unit}  cell{atomic_unit}
       H -4.81564e-01  6.43459e-01  4.48367e+01
1
# CELL(abcABC):   10.00000    10.00000     2.24902    90.00000    90.00000    90.00000  Step:          97  Bead:       0 positions{atomic_unit}  cell{atomic_unit}
       H -4.83885e-01  6.53390e-01  5.32999e+01
1
# CELL(abcABC):   10.00000    10.00000     2.53142    90.00000    90.00000    90.00000  Step:          98  Bead:       0 positions{atomic_unit}  cell{atomic_unit}
       H -4.86113e-01  6.63539e-01  6.00153e+01
1
# CELL(abcABC):   10.00000    10.00000     2.67796    90.00000    90.00000    90.00000  Step:          99  Bead:       0 positions{atomic_unit}  cell{atomic_unit}
       H -4.89101e-01  6.73676e-01  6.35085e+01
1
# CELL(abcABC):   10.00000    10.00000     2.65159    90.00000    90.00000    90.00000  Step:         100  Bead:       0 positions{atomic_unit}  cell{atomic_unit}
       H -4.92615e-01  6.81969e-01  6.29016e+01
